# --- PDSOI Transfer: Tsi=0.20um, Tox=0.017um, TBOX=0.40um, VDS=0.1V ---
# --- Lg = 1.00 um ---
go atlas
************ W A R N I N G ************
 You do not seem to be running a
 supported release of Linux. (CentOS)
***************************************
************ W A R N I N G ************
 You do not seem to be running a
 supported release of Linux. (CentOS)
***************************************
executing /home/silvaco/lib/atlas/5.22.1.R/x86_64-linux/atlas.exe


                                   A T L A S

            Version:  atlas 5.22.1.R (Fri Dec 18 15:27:29 PST 2015)

                           Copyright (c) 1984 - 2015
                        Silvaco Inc. All rights reserved

    We acknowledge the contribution of the following collaborative partners:

                              Stanford University



               ======================================================

                  ATLAS                           : enabled

                  S-PISCES                        : enabled

                  BLAZE                           : enabled

                  GIGA                            : enabled

                  LUMINOUS                        : enabled

                  LED                             : enabled

                  TFT                             : enabled

                  ORGANIC DISPLAY                 : enabled

                  ORGANIC SOLAR                   : enabled

                  MIXEDMODE                       : enabled

                  LASER                           : enabled

                  VCSEL                           : enabled

                  FERRO                           : enabled

                  QUANTUM                         : enabled

                  NOISE                           : enabled

                  REM                             : not licensed

                  MAGNETIC                        : enabled

                  DEVICE3D                        : enabled

                  THERMAL3D                       : enabled

                  GIGA3D                          : enabled

                  MIXEDMODE3D                     : enabled

                  TFT3D                           : enabled

                  QUANTUM3D                       : enabled

                  LUMINOUS3D                      : enabled

                  REM3D                           : not licensed

                  MAGNETIC3D                      : enabled

                  LED3D                           : enabled

                  LASER3D                         : enabled

                  MIXEDMODE XL                    : enabled

                  S-PISCES BUNDLE                 : not licensed

                  BLAZE BUNDLE                    : not licensed

                  TFT BUNDLE                      : not licensed

                  ORGANIC BUNDLE                  : not licensed

                  DEVICE3D BUNDLE                 : not licensed

                  TFT3D BUNDLE                    : not licensed

               ======================================================

                           Mon Oct 20 13:47:18 2025

                             Executing on host: khu
                   Current SFLM Server: 163.180.144.59:3162/



ATLAS> mesh space.mult=1.0
	####################################################
	######                                        ######
	######           Running on 1 CPU             ######
	######           12 CPUs available            ######
	######                                        ######
	####################################################
ATLAS> x.mesh loc=0.00 spacing=0.10
ATLAS> x.mesh loc=1.15 spacing=0.01
ATLAS> x.mesh loc=1.50 spacing=0.02
ATLAS> x.mesh loc=1.85 spacing=0.01
ATLAS> x.mesh loc=3.00 spacing=0.10
ATLAS> y.mesh loc=-0.017 spacing=0.02
ATLAS> y.mesh loc=0.000  spacing=0.01
ATLAS> y.mesh loc=0.200  spacing=0.02
ATLAS> y.mesh loc=0.600  spacing=0.02
ATLAS> y.mesh loc=1.800  spacing=0.10
ATLAS> 
ATLAS> region num=1 y.max=0     material=SiO2
ATLAS> region num=2 y.min=0 y.max=0.20 material=Silicon
ATLAS> region num=3 y.min=0.20 y.max=0.60 material=SiO2
ATLAS> region num=4 y.min=0.60 y.max=1.80 material=Silicon
ATLAS> 
ATLAS> electrode name=gate      x.min=1.00 x.max=2.00 y.min=-0.017 y.max=-0.017

Electrode #1
Name: gate                
 Number of boundary nodes: 69
 Dimensions in microns: 
       min         max
 x  1.001e+00   1.999e+00 
 y -1.700e-02  -1.700e-02 

ATLAS> electrode name=source    x.min=0.0  x.max=0.5  y.min=0.0    y.max=0.0

Electrode #2
Name: source              
 Number of boundary nodes: 7
 Dimensions in microns: 
       min         max
 x  0.000e+00   4.933e-01 
 y  0.000e+00   0.000e+00 

Warning:  Electrode shortened in X-direction.


ATLAS> electrode name=drain     x.min=2.5  x.max=3.0  y.min=0.0    y.max=0.0

Electrode #3
Name: drain               
 Number of boundary nodes: 7
 Dimensions in microns: 
       min         max
 x  2.507e+00   3.000e+00 
 y  0.000e+00   0.000e+00 

Warning:  Electrode shortened in X-direction.


ATLAS> electrode name=substrate x.min=0.0  x.max=3.0  y.min=1.8    y.max=1.8

Electrode #4
Name: substrate           
 Number of boundary nodes: 107
 Dimensions in microns: 
       min         max
 x  0.000e+00   3.000e+00 
 y  1.800e+00   1.800e+00 

ATLAS> 
ATLAS> doping uniform p.type conc=1e17 region=2

Mesh
 Type:               non-cylindrical
 Total grid points:  6527
 Total triangles  :  12720
 Obtuse triangles :  0  (0 %)
ATLAS> doping uniform p.type conc=1e17 region=4
ATLAS> doping gaussian n.type conc=1e20 characteristic=0.2 region=2 x.left=0.0  x.right=1.1 y.top=0.0 ratio.lateral=0.1
ATLAS> doping gaussian n.type conc=1e20 characteristic=0.2 region=2 x.left=1.9 x.right=3.0  y.top=0.0 ratio.lateral=0.1
ATLAS> 
ATLAS> contact name=gate workfunction=4.15
ATLAS> models cvt srh auger bgn fermi print
ATLAS> method gummel autonr


CONSTANTS:
 Boltzmann's constant  = 1.38066e-23 J/K
 Elementary charge     = 1.60219e-19 C
 Permitivity in vacuum = 8.85419e-14 F/cm
 Temperature           = 300 K
 Thermal voltage       = 0.025852 V

REGIONAL MATERIAL PARAMETERS:
 Region       :        1         2         3         4         5         6         7         8   
 Material     :       SiO2   Silicon      SiO2   Silicon Conductor Conductor Conductor Conductor 
 Type         :    insulator semicond. insulator semicond.   metal     metal     metal     metal  

 Average Composition Fraction 
 X-composition:         0         0         0         0         0         0         0         0 
 Y-composition:         0         0         0         0         0         0         0         0 

 Band Parameters
 Epsilon      :       3.9      11.8       3.9      11.8                                         
 Eg (eV)      :                1.08                1.08                                         
 Chi (eV)     :                4.17                4.17                                         
 Nc (per cc)  :             2.8e+19             2.8e+19                                         
 Nv (per cc)  :            1.04e+19            1.04e+19                                         
 ni (per cc)  :            1.45e+10            1.45e+10                                         

 Bandgap narrowing parameters 
 bgn.e (eV)   :               0.009               0.009                                         
 bgn.n (/cc)  :               1e+17               1e+17                                         
 bgn.c        :                 0.5                 0.5                                         
 ubgn.b       :             3.1e+12             3.1e+12                                         
 ubgn.c       :             3.9e-05             3.9e-05                                         
 bgn.shnk.me  :               0.321               0.321                                         
 bgn.shnk.mh  :               0.346               0.346                                         
 bgn.shnk.eps :                11.7                11.7                                         
 bgn.shnk.ge  :                  12                  12                                         
 bgn.shnk.gh  :                   4                   4                                         

 Effective Richardson Constants
 An*          :                 110                 110                                         
 Ap*          :                  30                  30                                         

 Incomplete Ionization Parameters
 Gc           :                   2                   2                                         
 Gv           :                   4                   4                                         
 Ed (eV)      :               0.044               0.044                                         
 Ea (eV)      :               0.045               0.045                                         

 Recombination Parameters
 taun0        :               1e-07               1e-07                                         
 taup0        :               1e-07               1e-07                                         
 etrap        :                   0                   0                                         
 nsrhn        :               5e+16               5e+16                                         
 nsrhp        :               5e+16               5e+16                                         
 ksrhtn       :              0.0025              0.0025                                         
 ksrhtp       :              0.0025              0.0025                                         
 ksrhcn       :               3e-13               3e-13                                         
 ksrhcp       :            1.18e-12            1.18e-12                                         
 ksrhgn       :                1.77                1.77                                         
 ksrhgp       :                0.57                0.57                                         
 nsrhn        :               5e+16               5e+16                                         
 nsrhp        :               5e+16               5e+16                                         
 augn         :             2.8e-31             2.8e-31                                         
 augp         :             9.9e-32             9.9e-32                                         
 augkn        :                   0                   0                                         
 augkp        :                   0                   0                                         
 kaugcn       :            1.83e-31            1.83e-31                                         
 kaugcp       :            2.78e-31            2.78e-31                                         
 kaugdn       :                1.18                1.18                                         
 kaugdp       :                0.72                0.72                                         
 aug.cnl      :             2.2e-31             2.2e-31                                         
 aug.cpl      :             9.2e-32             9.2e-32                                         
 aug.chi      :            1.66e-30            1.66e-30                                         
 hns.ae       :             6.7e-32             6.7e-32                                         
 hns.ah       :             7.2e-32             7.2e-32                                         
 hns.be       :            2.45e-31            2.45e-31                                         
 hns.bh       :             4.5e-33             4.5e-33                                         
 hns.ce       :            -2.2e-32            -2.2e-32                                         
 hns.ch       :            2.63e-32            2.63e-32                                         
 hns.he       :                3.47                3.47                                         
 hns.hh       :                8.26                8.26                                         
 hns.n0e      :               1e+18               1e+18                                         
 hns.p0e      :               1e+18               1e+18                                         
 copt         :                   0                   0                                         

 Band-to-band tunneling Parameters
 mass.tunnel  :                0.25                0.25                                         
 me.tunnel    :               0.322               0.322                                         
 mh.tunnel    :               0.549               0.549                                         

 Thermal Velocities
 vn (cm/s)    :            1.08e+07            1.08e+07                                         
 vp (cm/s)    :             1.3e+07             1.3e+07                                         

 Saturation Velocities
 vsatn (cm/s) :            1.03e+07            1.03e+07                                         
 vsatp (cm/s) :            1.03e+07            1.03e+07                                         

REGIONAL MODEL FLAGS:
 Region:          1    2    3    4    5    6    7    8 
 SRH                   T         T                      
 consrh                F         F                      
 klasrh                F         F                      
 Auger                 T         T                      
 klaaug                F         F                      
 picaug                F         F                      
 hnsaug                F         F                      
 auggen                F         F                      
 optr                  F         F                      
 optr.gb               F         F                      
 bgn(std/kla)          T         T                      
 ubgn                  F         F                      
 bgn.alamo             F         F                      
 bgn.bennett           F         F                      
 bgn.schenk            F         F                      
 incomplete            F         F                      
 bbt                   F         F                      
 bbtauto               F         F                      
 bbthurkx              F         F                      
 bbtkane               F         F                      
 bbtschenk             F         F                      
 bbtnonlocal           F         F                      
 tat(local)            F         F                      
 tatnonlocal           F         F                      
 tat(coulombic)        F         F                      
 impact                F         F                      
 Boltzmann             F         F                      
 Fermi-Dirac           T         T                      

Gain and Rsp scaling
  Gain scale factor  :         1         1         1         1 
  Rsp scale factor   :         1         1         1         1 


REGIONAL MOBILITY MODEL SUMMARY:

  Region #2:

    Model for Electrons:

      Concentration Dependent Mobility
      @ Temperature =     300 Kelvin 
        Using CVT low field mobility model.
          cs    = 3.43e+20
          cr    = 9.68e+16
          alpha = 0.68
          beta  = 2
          gamma = 2.5
          pc    = 0
          mu0   = 52.2
          mu1   = 43.4
          mumax = 1417

      Parallel Field Dependent Mobility
        Using parallel field model.
          Using built-in Silicon model for Vsat.
          alpha = 2.4e+07
          theta = 0.8
          tnom = 600
          beta = 2

      Perpendicular Field Dependent Mobility
        Using CVT model.
          B = 4.75e+07
          C = 174000
          D = 0.333333
          E = 1
          tau = 0.125
          delta = 5.82e+14
          k = 2

    Model for Holes:

      Concentration Dependent Mobility
      @ Temperature =     300 Kelvin 
        Using CVT low field mobility model.
          cs    = 6.1e+20
          cr    = 2.23e+17
          alpha = 0.71
          beta  = 2
          gamma = 2.2
          pc    = 9.23e+16
          mu0   = 44.9
          mu1   = 29
          mumax = 470.5

      Parallel Field Dependent Mobility
        Using parallel field model.
          Using built-in Silicon model for Vsat.
          alpha = 2.4e+07
          theta = 0.8
          tnom = 600
          beta = 1

      Perpendicular Field Dependent Mobility
        Using CVT model.
          B = 9.925e+06
          C = 884200
          D = 0.333333
          E = 1
          tau = 0.0317
          delta = 2.0546e+14
          k = 2

  Region #4:

    Model for Electrons:

      Concentration Dependent Mobility
      @ Temperature =     300 Kelvin 
        Using CVT low field mobility model.
          cs    = 3.43e+20
          cr    = 9.68e+16
          alpha = 0.68
          beta  = 2
          gamma = 2.5
          pc    = 0
          mu0   = 52.2
          mu1   = 43.4
          mumax = 1417

      Parallel Field Dependent Mobility
        Using parallel field model.
          Using built-in Silicon model for Vsat.
          alpha = 2.4e+07
          theta = 0.8
          tnom = 600
          beta = 2

      Perpendicular Field Dependent Mobility
        Using CVT model.
          B = 4.75e+07
          C = 174000
          D = 0.333333
          E = 1
          tau = 0.125
          delta = 5.82e+14
          k = 2

    Model for Holes:

      Concentration Dependent Mobility
      @ Temperature =     300 Kelvin 
        Using CVT low field mobility model.
          cs    = 6.1e+20
          cr    = 2.23e+17
          alpha = 0.71
          beta  = 2
          gamma = 2.2
          pc    = 9.23e+16
          mu0   = 44.9
          mu1   = 29
          mumax = 470.5

      Parallel Field Dependent Mobility
        Using parallel field model.
          Using built-in Silicon model for Vsat.
          alpha = 2.4e+07
          theta = 0.8
          tnom = 600
          beta = 1

      Perpendicular Field Dependent Mobility
        Using CVT model.
          B = 9.925e+06
          C = 884200
          D = 0.333333
          E = 1
          tau = 0.0317
          delta = 2.0546e+14
          k = 2


Contacts:
Name         Num  Work fn    Resist.    Capacit.   Induct.
                   (eV)      (Ohms)     (Farads)   (Henries)
gate          1     4.150   0.000E+00  0.000E+00  0.000E+00
source        2     0.000   0.000E+00  0.000E+00  0.000E+00
drain         3     0.000   0.000E+00  0.000E+00  0.000E+00
substrate     4     0.000   0.000E+00  0.000E+00  0.000E+00
  
ATLAS> solve init

Starting module:   SPISCES                        


Obtaining static solution:


init           psi    psi 
direct          x     rhs 
   i    j  m  -5.00* -26.0*
---------------------------
   1    1  G   0.000 -15.73
   1    2  G  -0.301 -15.84
   1    3  G  -0.477 -15.90
   1    4  G  -0.602 -15.97
   1    5  G  -0.699 -16.04
   1    6  G  -0.778 -16.13
   1    7  G  -0.845 -16.24
   1    8  G  -0.903 -16.39
   1    9  G  -0.954 -16.61
   1   10  G  -1.291 -17.71
   1   11  G  -11.5* -28.1*
  
ATLAS> solve name=drain vdrain=0.1

Obtaining static solution:

 V(  drain  ) = 0.1         


prev           psi     n      p     psi     n      p  
direct          x      x      x     rhs    rhs    rhs 
   i    j  m  -5.00* -5.00* -5.00* -26.0* -17.3* -17.3*
-------------------------------------------------------
   1    1  G  -0.007               -15.99              
   1    2  G  -4.634               -18.77              
   1    3  G  -10.2*               -24.34              
   1    4  G         -0.011               -1.086       
   1    5  G                -0.334               -18.0*
   2    1  G   0.093               -13.81              
   2    2  G  -0.255               -13.84              
   2    3  G  -1.126               -14.82              
   2    4  G  -2.812               -16.53              
   2    5  G  -6.18*               -19.89              
   2    6  G         -0.019               -1.426       
   2    7  G                -0.511               -9.181
   3    1  G  -0.630               -13.94              
   3    2  G  -0.880               -13.66              
   3    3  G  -0.668               -14.49              
   3    4  G  -1.675               -15.75              
   3    5  G  -3.715               -18.18              
   3    6  G  -7.80*               -22.75              
   3    7  G         -0.000               -2.082       
   3    8  G                -0.324               -9.504
   4    1  G  -0.141               -14.25              
   4    2  G  -0.735               -14.68              
   4    3  G  -0.408               -15.36              
   4    4  G  -0.797               -16.28              
   4    5  G  -1.587               -17.73              
   4    6  G  -3.244               -19.40              
   4    7  G  -6.58*               -22.73              
   4    8  G          2.288               -2.797       
   4    9  G                -0.826               -9.190
   5    1  G  -0.115               -15.22              
   5    2  G  -0.163               -15.96              
   5    3  G  -0.564               -16.60              
   5    4  G  -1.447               -17.58              
   5    5  G  -3.268               -19.41              
   5    6  G  -6.92*               -23.07              
   5    7  G         -0.837               -4.302       
   5    8  G                -1.932               -10.11
   6    1  G  -0.867               -17.07              
   6    2  G  -2.146               -18.30              
   6    3  G  -4.672               -20.82              
   6    4  G  -9.73*               -25.88              
   6    5  G         -3.386               -6.876       
   6    6  G                -4.537               -12.28
   7    1  G  -3.558               -19.70              
   7    2  G  -7.50*               -23.65              
   7    3  G         -8.80*               -12.15       
   7    4  G                -6.79*               -17.5*

Electrode       Va(V)      Jn(A/um)   Jp(A/um)   Jc(A/um)   Jt(A/um)
====================================================================
gate           0.000e+00 -0.000e+00 -0.000e+00 -0.000e+00  0.000e+00
source         0.000e+00 -1.169e-13 -1.568e-21 -1.169e-13 -1.169e-13
drain          1.000e-01  1.169e-13  6.226e-22  1.169e-13  1.169e-13
substrate      0.000e+00  5.011e-23 -0.000e+00  5.011e-23  5.011e-23
Total                                                     -6.180e-17

Time for bias point:   3.50 sec. 
Total time:            4.90 sec. 
  
ATLAS> log outf=pdsoi_tsi020_Lg100_IdVg_Vd01.log
ATLAS> solve name=gate vgate=0

Obtaining static solution:


prev           psi     n      p     psi     n      p  
direct          x      x      x     rhs    rhs    rhs 
   i    j  m  -5.00* -5.00* -5.00* -26.0* -17.3* -17.3*
-------------------------------------------------------
   1    1  G  -8.34*               -24.00              
   1    2  G         -11.9*               -16.27       
   1    3  G                -8.77*               -18.6*

Electrode       Va(V)      Jn(A/um)   Jp(A/um)   Jc(A/um)   Jt(A/um)
====================================================================
gate           0.000e+00 -0.000e+00 -0.000e+00 -0.000e+00  0.000e+00
source         0.000e+00 -1.170e-13 -1.568e-21 -1.170e-13 -1.170e-13
drain          1.000e-01  1.170e-13  6.226e-22  1.170e-13  1.170e-13
substrate      0.000e+00  5.011e-23  1.020e-22  1.521e-22  1.521e-22
Total                                                     -2.838e-17

Time for bias point:   0.00 sec. 
Total time:            4.90 sec. 
  
ATLAS> solve name=gate vstep=0.05 vfinal=1.6

Obtaining static solution:

 V(   gate  ) = 0.05        


prev           psi     n      p     psi     n      p  
direct          x      x      x     rhs    rhs    rhs 
   i    j  m  -5.00* -5.00* -5.00* -26.0* -17.3* -17.3*
-------------------------------------------------------
   1    1  G  -0.675               -17.35              
   1    2  G  -2.449               -19.06              
   1    3  G  -5.03*               -21.58              
   1    4  G         -4.942               -13.42       
   1    5  G                -1.870               -18.0*
   2    1  G  -3.430               -19.08              
   2    2  G  -5.61*               -21.27              
   2    3  G         -6.45*               -15.88       
   2    4  G                -4.908               -12.08
   3    1  G  -6.48*               -22.14              
   3    2  G         -9.49*               -16.19       
   3    3  G                -7.54*               -18.2*

Electrode       Va(V)      Jn(A/um)   Jp(A/um)   Jc(A/um)   Jt(A/um)
====================================================================
gate           5.000e-02 -0.000e+00 -0.000e+00 -0.000e+00  0.000e+00
source         0.000e+00 -3.608e-13 -1.594e-21 -3.608e-13 -3.608e-13
drain          1.000e-01  3.607e-13  6.219e-22  3.607e-13  3.607e-13
substrate      0.000e+00  5.011e-23  1.020e-22  1.521e-22  1.521e-22
Total                                                     -3.506e-17

Time for bias point:   1.50 sec. 
Total time:            6.40 sec. 
  

Obtaining static solution:

 V(   gate  ) = 0.1         


proj           psi     n      p     psi     n      p  
direct          x      x      x     rhs    rhs    rhs 
   i    j  m  -5.00* -5.00* -5.00* -26.0* -17.3* -17.3*
-------------------------------------------------------
   1    1  G  -2.193               -17.70              
   1    2  G  -4.256               -20.80              
   1    3  G  -8.61*               -25.12              
   1    4  G         -2.893               -4.833       
   1    5  G                -1.340               -9.990
   2    1  G  -2.875               -17.70              
   2    2  G  -4.514               -20.17              
   2    3  G  -7.78*               -23.44              
   2    4  G         -5.43*               -8.345       
   2    5  G                -2.702               -10.97
   3    1  G  -4.259               -19.92              
   3    2  G  -7.27*               -22.93              
   3    3  G         -6.80*               -15.35       
   3    4  G                -4.371               -13.71
   4    1  G  -5.93*               -21.58              
   4    2  G         -8.47*               -16.12       
   4    3  G                -6.00*               -17.05

Electrode       Va(V)      Jn(A/um)   Jp(A/um)   Jc(A/um)   Jt(A/um)
====================================================================
gate           1.000e-01 -0.000e+00 -0.000e+00 -0.000e+00  0.000e+00
source         0.000e+00 -1.113e-12 -1.534e-21 -1.113e-12 -1.113e-12
drain          1.000e-01  1.113e-12  6.235e-22  1.113e-12  1.113e-12
substrate      0.000e+00  5.011e-23 -0.000e+00  5.011e-23  5.011e-23
Total                                                     -4.856e-17

Time for bias point:   1.00 sec. 
Total time:            7.40 sec. 
  

Obtaining static solution:

 V(   gate  ) = 0.15        


proj           psi     n      p     psi     n      p  
direct          x      x      x     rhs    rhs    rhs 
   i    j  m  -5.00* -5.00* -5.00* -26.0* -17.3* -17.3*
-------------------------------------------------------
   1    1  G  -2.060               -17.70              
   1    2  G  -4.122               -20.67              
   1    3  G  -8.28*               -24.79              
   1    4  G         -2.894               -4.844       
   1    5  G                -2.206               -9.941
   2    1  G  -3.761               -17.70              
   2    2  G  -6.27*               -21.20              
   2    3  G         -5.80*               -8.345       
   2    4  G                -4.321               -12.73
   3    1  G  -5.88*               -21.20              
   3    2  G         -7.92*               -15.35       
   3    3  G                -6.64*               -16.96

Electrode       Va(V)      Jn(A/um)   Jp(A/um)   Jc(A/um)   Jt(A/um)
====================================================================
gate           1.500e-01 -0.000e+00 -0.000e+00 -0.000e+00  0.000e+00
source         0.000e+00 -3.483e-12 -1.463e-21 -3.483e-12 -3.483e-12
drain          1.000e-01  3.483e-12  6.252e-22  3.483e-12  3.483e-12
substrate      0.000e+00  5.011e-23  1.020e-22  1.521e-22  1.521e-22
Total                                                     -4.621e-17

Time for bias point:   1.50 sec. 
Total time:            8.90 sec. 
  

Obtaining static solution:

 V(   gate  ) = 0.2         


proj           psi     n      p     psi     n      p  
direct          x      x      x     rhs    rhs    rhs 
   i    j  m  -5.00* -5.00* -5.00* -26.0* -17.3* -17.3*
-------------------------------------------------------
   1    1  G  -1.953               -17.70              
   1    2  G  -3.970               -20.61              
   1    3  G  -8.02*               -24.55              
   1    4  G         -2.894               -4.844       
   1    5  G                -1.251               -9.972
   2    1  G  -2.830               -17.70              
   2    2  G  -4.395               -20.05              
   2    3  G  -7.54*               -23.20              
   2    4  G         -4.376               -8.345       
   2    5  G                -2.739               -10.89
   3    1  G  -4.297               -19.95              
   3    2  G  -7.34*               -23.00              
   3    3  G         -5.85*               -15.24       
   3    4  G                -4.527               -13.84
   4    1  G  -6.08*               -21.74              
   4    2  G         -7.64*               -16.29       
   4    3  G                -6.31*               -17.4*

Electrode       Va(V)      Jn(A/um)   Jp(A/um)   Jc(A/um)   Jt(A/um)
====================================================================
gate           2.000e-01 -0.000e+00 -0.000e+00 -0.000e+00  0.000e+00