# ---------- Lg = 1.0um ----------
go atlas
************ W A R N I N G ************
 You do not seem to be running a
 supported release of Linux. (CentOS)
***************************************
************ W A R N I N G ************
 You do not seem to be running a
 supported release of Linux. (CentOS)
***************************************
executing /home/silvaco/lib/atlas/5.22.1.R/x86_64-linux/atlas.exe


                                   A T L A S

            Version:  atlas 5.22.1.R (Fri Dec 18 15:27:29 PST 2015)

                           Copyright (c) 1984 - 2015
                        Silvaco Inc. All rights reserved

    We acknowledge the contribution of the following collaborative partners:

                              Stanford University



               ======================================================

                  ATLAS                           : enabled

                  S-PISCES                        : enabled

                  BLAZE                           : enabled

                  GIGA                            : enabled

                  LUMINOUS                        : enabled

                  LED                             : enabled

                  TFT                             : enabled

                  ORGANIC DISPLAY                 : enabled

                  ORGANIC SOLAR                   : enabled

                  MIXEDMODE                       : enabled

                  LASER                           : enabled

                  VCSEL                           : enabled

                  FERRO                           : enabled

                  QUANTUM                         : enabled

                  NOISE                           : enabled

                  REM                             : not licensed

                  MAGNETIC                        : enabled

                  DEVICE3D                        : enabled

                  THERMAL3D                       : enabled

                  GIGA3D                          : enabled

                  MIXEDMODE3D                     : enabled

                  TFT3D                           : enabled

                  QUANTUM3D                       : enabled

                  LUMINOUS3D                      : enabled

                  REM3D                           : not licensed

                  MAGNETIC3D                      : enabled

                  LED3D                           : enabled

                  LASER3D                         : enabled

                  MIXEDMODE XL                    : enabled

                  S-PISCES BUNDLE                 : not licensed

                  BLAZE BUNDLE                    : not licensed

                  TFT BUNDLE                      : not licensed

                  ORGANIC BUNDLE                  : not licensed

                  DEVICE3D BUNDLE                 : not licensed

                  TFT3D BUNDLE                    : not licensed

               ======================================================

                           Mon Oct 20 13:41:43 2025

                             Executing on host: khu
                   Current SFLM Server: 163.180.144.59:3162/



ATLAS> 
ATLAS> mesh space.mult=1.0
	####################################################
	######                                        ######
	######           Running on 1 CPU             ######
	######           12 CPUs available            ######
	######                                        ######
	####################################################
ATLAS> x.mesh loc=0.00  spacing=0.1
ATLAS> x.mesh loc=1.15 spacing=0.01
ATLAS> x.mesh loc=1.5  spacing=0.02
ATLAS> x.mesh loc=1.85 spacing=0.01
ATLAS> x.mesh loc=3.00 spacing=0.1
ATLAS> y.mesh loc=-0.017 spacing=0.02
ATLAS> y.mesh loc=0.000  spacing=0.01
ATLAS> y.mesh loc=0.200  spacing=0.02
ATLAS> y.mesh loc=0.600  spacing=0.02
ATLAS> y.mesh loc=1.800  spacing=0.1
ATLAS> 
ATLAS> region num=1 y.max=0 material=SiO2
ATLAS> region num=2 y.min=0 y.max=0.2 material=Silicon
ATLAS> region num=3 y.min=0.2 y.max=0.6 material=SiO2
ATLAS> region num=4 y.min=0.6 y.max=1.8 material=Silicon
ATLAS> 
ATLAS> electrode name=gate      x.min=1.0 x.max=2.0 y.min=-0.017 y.max=-0.017

Electrode #1
Name: gate                
 Number of boundary nodes: 69
 Dimensions in microns: 
       min         max
 x  1.001e+00   1.999e+00 
 y -1.700e-02  -1.700e-02 

ATLAS> electrode name=source    x.min=0.0 x.max=0.5 y.min=0.0    y.max=0.0

Electrode #2
Name: source              
 Number of boundary nodes: 7
 Dimensions in microns: 
       min         max
 x  0.000e+00   4.933e-01 
 y  0.000e+00   0.000e+00 

Warning:  Electrode shortened in X-direction.


ATLAS> electrode name=drain     x.min=2.5 x.max=3.0 y.min=0.0    y.max=0.0

Electrode #3
Name: drain               
 Number of boundary nodes: 7
 Dimensions in microns: 
       min         max
 x  2.507e+00   3.000e+00 
 y  0.000e+00   0.000e+00 

Warning:  Electrode shortened in X-direction.


ATLAS> electrode name=substrate x.min=0.0 x.max=3.0 y.min=1.8    y.max=1.8

Electrode #4
Name: substrate           
 Number of boundary nodes: 107
 Dimensions in microns: 
       min         max
 x  0.000e+00   3.000e+00 
 y  1.800e+00   1.800e+00 

ATLAS> 
ATLAS> doping uniform p.type conc=1e17 region=2

Mesh
 Type:               non-cylindrical
 Total grid points:  6527
 Total triangles  :  12720
 Obtuse triangles :  0  (0 %)
ATLAS> doping uniform p.type conc=1e17 region=4
ATLAS> doping gaussian n.type conc=1e20 characteristic=0.2 region=2 x.left=0.0 x.right=1.0 y.top=0.0 ratio.lateral=0.1
ATLAS> doping gaussian n.type conc=1e20 characteristic=0.2 region=2 x.left=2.0 x.right=3.0 y.top=0.0 ratio.lateral=0.1
ATLAS> 
ATLAS> contact name=gate workfunction=4.15
ATLAS> models cvt srh auger bgn fermi impact print
ATLAS> 
ATLAS> method gummel autonr


CONSTANTS:
 Boltzmann's constant  = 1.38066e-23 J/K
 Elementary charge     = 1.60219e-19 C
 Permitivity in vacuum = 8.85419e-14 F/cm
 Temperature           = 300 K
 Thermal voltage       = 0.025852 V

REGIONAL MATERIAL PARAMETERS:
 Region       :        1         2         3         4         5         6         7         8   
 Material     :       SiO2   Silicon      SiO2   Silicon Conductor Conductor Conductor Conductor 
 Type         :    insulator semicond. insulator semicond.   metal     metal     metal     metal  

 Average Composition Fraction 
 X-composition:         0         0         0         0         0         0         0         0 
 Y-composition:         0         0         0         0         0         0         0         0 

 Band Parameters
 Epsilon      :       3.9      11.8       3.9      11.8                                         
 Eg (eV)      :                1.08                1.08                                         
 Chi (eV)     :                4.17                4.17                                         
 Nc (per cc)  :             2.8e+19             2.8e+19                                         
 Nv (per cc)  :            1.04e+19            1.04e+19                                         
 ni (per cc)  :            1.45e+10            1.45e+10                                         

 Bandgap narrowing parameters 
 bgn.e (eV)   :               0.009               0.009                                         
 bgn.n (/cc)  :               1e+17               1e+17                                         
 bgn.c        :                 0.5                 0.5                                         
 ubgn.b       :             3.1e+12             3.1e+12                                         
 ubgn.c       :             3.9e-05             3.9e-05                                         
 bgn.shnk.me  :               0.321               0.321                                         
 bgn.shnk.mh  :               0.346               0.346                                         
 bgn.shnk.eps :                11.7                11.7                                         
 bgn.shnk.ge  :                  12                  12                                         
 bgn.shnk.gh  :                   4                   4                                         

 Effective Richardson Constants
 An*          :                 110                 110                                         
 Ap*          :                  30                  30                                         

 Incomplete Ionization Parameters
 Gc           :                   2                   2                                         
 Gv           :                   4                   4                                         
 Ed (eV)      :               0.044               0.044                                         
 Ea (eV)      :               0.045               0.045                                         

 Recombination Parameters
 taun0        :               1e-07               1e-07                                         
 taup0        :               1e-07               1e-07                                         
 etrap        :                   0                   0                                         
 nsrhn        :               5e+16               5e+16                                         
 nsrhp        :               5e+16               5e+16                                         
 ksrhtn       :              0.0025              0.0025                                         
 ksrhtp       :              0.0025              0.0025                                         
 ksrhcn       :               3e-13               3e-13                                         
 ksrhcp       :            1.18e-12            1.18e-12                                         
 ksrhgn       :                1.77                1.77                                         
 ksrhgp       :                0.57                0.57                                         
 nsrhn        :               5e+16               5e+16                                         
 nsrhp        :               5e+16               5e+16                                         
 augn         :             2.8e-31             2.8e-31                                         
 augp         :             9.9e-32             9.9e-32                                         
 augkn        :                   0                   0                                         
 augkp        :                   0                   0                                         
 kaugcn       :            1.83e-31            1.83e-31                                         
 kaugcp       :            2.78e-31            2.78e-31                                         
 kaugdn       :                1.18                1.18                                         
 kaugdp       :                0.72                0.72                                         
 aug.cnl      :             2.2e-31             2.2e-31                                         
 aug.cpl      :             9.2e-32             9.2e-32                                         
 aug.chi      :            1.66e-30            1.66e-30                                         
 hns.ae       :             6.7e-32             6.7e-32                                         
 hns.ah       :             7.2e-32             7.2e-32                                         
 hns.be       :            2.45e-31            2.45e-31                                         
 hns.bh       :             4.5e-33             4.5e-33                                         
 hns.ce       :            -2.2e-32            -2.2e-32                                         
 hns.ch       :            2.63e-32            2.63e-32                                         
 hns.he       :                3.47                3.47                                         
 hns.hh       :                8.26                8.26                                         
 hns.n0e      :               1e+18               1e+18                                         
 hns.p0e      :               1e+18               1e+18                                         
 copt         :                   0                   0                                         

 Impact Ionization Model Parameters (Selberherr model)
 an1          :            7.03e+05            7.03e+05                                         
 an2          :            7.03e+05            7.03e+05                                         
 ap1          :            6.71e+05            6.71e+05                                         
 ap2          :            1.58e+06            1.58e+06                                         
 bn1          :            1.23e+06            1.23e+06                                         
 bn2          :            1.23e+06            1.23e+06                                         
 bp1          :            1.69e+06            1.69e+06                                         
 bp2          :            2.04e+06            2.04e+06                                         
 betan        :                   1                   1                                         
 betap        :                   1                   1                                         
 egran        :               4e+05               4e+05                                         

 Band-to-band tunneling Parameters
 mass.tunnel  :                0.25                0.25                                         
 me.tunnel    :               0.322               0.322                                         
 mh.tunnel    :               0.549               0.549                                         

 Thermal Velocities
 vn (cm/s)    :            1.08e+07            1.08e+07                                         
 vp (cm/s)    :             1.3e+07             1.3e+07                                         

 Saturation Velocities
 vsatn (cm/s) :            1.03e+07            1.03e+07                                         
 vsatp (cm/s) :            1.03e+07            1.03e+07                                         

REGIONAL MODEL FLAGS:
 Region:          1    2    3    4    5    6    7    8 
 SRH                   T         T                      
 consrh                F         F                      
 klasrh                F         F                      
 Auger                 T         T                      
 klaaug                F         F                      
 picaug                F         F                      
 hnsaug                F         F                      
 auggen                F         F                      
 optr                  F         F                      
 optr.gb               F         F                      
 bgn(std/kla)          T         T                      
 ubgn                  F         F                      
 bgn.alamo             F         F                      
 bgn.bennett           F         F                      
 bgn.schenk            F         F                      
 incomplete            F         F                      
 bbt                   F         F                      
 bbtauto               F         F                      
 bbthurkx              F         F                      
 bbtkane               F         F                      
 bbtschenk             F         F                      
 bbtnonlocal           F         F                      
 tat(local)            F         F                      
 tatnonlocal           F         F                      
 tat(coulombic)        F         F                      
 impact                T         T                      
 Boltzmann             F         F                      
 Fermi-Dirac           T         T                      

Gain and Rsp scaling
  Gain scale factor  :         1         1         1         1 
  Rsp scale factor   :         1         1         1         1 


REGIONAL MOBILITY MODEL SUMMARY:

  Region #2:

    Model for Electrons:

      Concentration Dependent Mobility
      @ Temperature =     300 Kelvin 
        Using CVT low field mobility model.
          cs    = 3.43e+20
          cr    = 9.68e+16
          alpha = 0.68
          beta  = 2
          gamma = 2.5
          pc    = 0
          mu0   = 52.2
          mu1   = 43.4
          mumax = 1417

      Parallel Field Dependent Mobility
        Using parallel field model.
          Using built-in Silicon model for Vsat.
          alpha = 2.4e+07
          theta = 0.8
          tnom = 600
          beta = 2

      Perpendicular Field Dependent Mobility
        Using CVT model.
          B = 4.75e+07
          C = 174000
          D = 0.333333
          E = 1
          tau = 0.125
          delta = 5.82e+14
          k = 2

    Model for Holes:

      Concentration Dependent Mobility
      @ Temperature =     300 Kelvin 
        Using CVT low field mobility model.
          cs    = 6.1e+20
          cr    = 2.23e+17
          alpha = 0.71
          beta  = 2
          gamma = 2.2
          pc    = 9.23e+16
          mu0   = 44.9
          mu1   = 29
          mumax = 470.5

      Parallel Field Dependent Mobility
        Using parallel field model.
          Using built-in Silicon model for Vsat.
          alpha = 2.4e+07
          theta = 0.8
          tnom = 600
          beta = 1

      Perpendicular Field Dependent Mobility
        Using CVT model.
          B = 9.925e+06
          C = 884200
          D = 0.333333
          E = 1
          tau = 0.0317
          delta = 2.0546e+14
          k = 2

  Region #4:

    Model for Electrons:

      Concentration Dependent Mobility
      @ Temperature =     300 Kelvin 
        Using CVT low field mobility model.
          cs    = 3.43e+20
          cr    = 9.68e+16
          alpha = 0.68
          beta  = 2
          gamma = 2.5
          pc    = 0
          mu0   = 52.2
          mu1   = 43.4
          mumax = 1417

      Parallel Field Dependent Mobility
        Using parallel field model.
          Using built-in Silicon model for Vsat.
          alpha = 2.4e+07
          theta = 0.8
          tnom = 600
          beta = 2

      Perpendicular Field Dependent Mobility
        Using CVT model.
          B = 4.75e+07
          C = 174000
          D = 0.333333
          E = 1
          tau = 0.125
          delta = 5.82e+14
          k = 2

    Model for Holes:

      Concentration Dependent Mobility
      @ Temperature =     300 Kelvin 
        Using CVT low field mobility model.
          cs    = 6.1e+20
          cr    = 2.23e+17
          alpha = 0.71
          beta  = 2
          gamma = 2.2
          pc    = 9.23e+16
          mu0   = 44.9
          mu1   = 29
          mumax = 470.5

      Parallel Field Dependent Mobility
        Using parallel field model.
          Using built-in Silicon model for Vsat.
          alpha = 2.4e+07
          theta = 0.8
          tnom = 600
          beta = 1

      Perpendicular Field Dependent Mobility
        Using CVT model.
          B = 9.925e+06
          C = 884200
          D = 0.333333
          E = 1
          tau = 0.0317
          delta = 2.0546e+14
          k = 2


Contacts:
Name         Num  Work fn    Resist.    Capacit.   Induct.
                   (eV)      (Ohms)     (Farads)   (Henries)
gate          1     4.150   0.000E+00  0.000E+00  0.000E+00
source        2     0.000   0.000E+00  0.000E+00  0.000E+00
drain         3     0.000   0.000E+00  0.000E+00  0.000E+00
substrate     4     0.000   0.000E+00  0.000E+00  0.000E+00
  
ATLAS> solve init

Starting module:   SPISCES                        


Obtaining static solution:


init           psi    psi 
direct          x     rhs 
   i    j  m  -5.00* -26.0*
---------------------------
   1    1  G   0.000 -15.80
   1    2  G  -0.301 -15.85
   1    3  G  -0.477 -15.91
   1    4  G  -0.602 -15.97
   1    5  G  -0.699 -16.04
   1    6  G  -0.778 -16.13
   1    7  G  -0.845 -16.24
   1    8  G  -0.903 -16.39
   1    9  G  -0.954 -16.61
   1   10  G  -1.256 -17.71
   1   11  G  -11.2* -27.7*
  
ATLAS> solve name=gate vgate=1.5

Obtaining static solution:

 V(   gate  ) = 1.5         


prev           psi     n      p     psi     n      p  
direct          x      x      x     rhs    rhs    rhs 
   i    j  m  -5.00* -5.00* -5.00* -26.0* -17.3* -17.3*
-------------------------------------------------------
   1    1  G  -0.014               -15.88              
   1    2  G  -0.310               -15.57              
   1    3  G  -0.490               -15.63              
   1    4  G  -0.611               -16.01              
   1    5  G  -0.707               -15.85              
   1    6  G  -0.784               -15.92              
   1    7  G  -0.851               -16.19              
   1    8  G  -0.854               -16.33              
   1    9  G  -0.858               -16.52              
   1   10  G  -0.928               -16.85              
   1   11  G  -7.26*               -23.51              
   1   12  G         -14.1*               -15.55       
   1   13  G                -6.29*               -19.0*

Electrode       Va(V)      Jn(A/um)   Jp(A/um)   Jc(A/um)   Jt(A/um)
====================================================================
gate           1.500e+00 -0.000e+00 -0.000e+00 -0.000e+00  0.000e+00
source         0.000e+00  2.141e-18  1.405e-33  2.141e-18  2.141e-18
drain          0.000e+00 -1.644e-16  3.480e-33 -1.644e-16 -1.644e-16
substrate      0.000e+00 -0.000e+00 -0.000e+00 -0.000e+00  0.000e+00
Total                                                     -1.622e-16

Time for bias point:   1.00 sec. 
Total time:            2.38 sec. 
  
ATLAS> method newton trap autonr
ATLAS> log outf=tsi020_Lg100.log
ATLAS> solve name=drain vdrain=0.0 cname=drain

Obtaining static solution:


Warning: In line #  31
Need to define BOTH Current Value and  Electrode no. for Compliance limit.    2

prev           psi     n      p     psi     n      p  
direct          x      x      x     rhs    rhs    rhs 
   i    j  m  -5.00* -5.00* -5.00* -26.0* -17.3* -17.3*
-------------------------------------------------------
   1       N  -6.29* -7.12* -6.29* -29.8* -16.39 -17.9*

Electrode       Va(V)      Jn(A/um)   Jp(A/um)   Jc(A/um)   Jt(A/um)
====================================================================
gate           1.500e+00 -0.000e+00 -0.000e+00 -0.000e+00  0.000e+00
source         0.000e+00  1.493e-17 -3.582e-23  1.493e-17  1.493e-17
drain          0.000e+00  3.472e-18 -3.582e-23  3.472e-18  3.472e-18
substrate      0.000e+00  5.011e-23  4.860e-19  4.860e-19  4.860e-19
Total                                                      1.889e-17

Time for bias point:   0.50 sec. 
Total time:            2.88 sec. 
  
ATLAS> solve name=drain vdrain=0.1 vstep=0.1 vfinal=1.6 cname=drain

Obtaining static solution:

 V(  drain  ) = 0.1         


Warning: In line #  32
Need to define BOTH Current Value and  Electrode no. for Compliance limit.    2

prev           psi     n      p     psi     n      p  
direct          x      x      x     rhs    rhs    rhs 
   i    j  m  -5.00* -5.00* -5.00* -26.0* -17.3* -17.3*
-------------------------------------------------------
   1       N   2.000 -0.051  8.066 -9.457 -1.381  6.807
   2       N   2.000  7.747  8.155 -10.36  1.101  5.400
   3       N   2.000  8.032  8.130 -12.42  2.542  2.567
   4       A   2.000  9.093  10.62 -9.960  10.26  10.26
   5       N   2.000  10.87  9.654 -8.731  11.19  11.19
   6       N   2.000  10.37  9.540 -9.793  11.18  11.18
   7       A   2.000  11.38  11.38 -8.139  11.82  11.82
   8       N   2.000  11.07  11.38 -8.689  11.69  11.69
   9       N   2.000  10.88  11.38 -11.11  11.28  11.28
  10       A   2.000  11.38  11.38 -8.396  12.19  12.19
  11       N   2.000  10.41  11.29 -9.066  11.66  11.66
  12       N   2.000  9.595  9.224 -10.50  11.13  11.13
  13       A   2.000  11.38  11.38 -8.568  11.76  11.76
  14       N   2.000  5.876  6.889 -9.523  11.23  11.23
  15       N   2.000  5.014  5.278 -10.80  11.06  11.06
  16       A   2.000  11.38  8.817 -9.008  11.79  11.79
  17       N   2.000  4.155  4.155 -10.26  11.26  11.26
  18       A   2.000  6.942  6.829 -8.460  12.24  12.24
  19       N   2.000  3.338  3.353 -9.175  11.71  11.71
  20       N   2.000  3.351  3.325 -9.335  11.57  11.57
  21       N   2.000  3.809  3.811 -11.38  11.16  11.16
  22       A   2.000  4.483  4.629 -8.203  12.06  12.06

Warning: Solution algorithm cannot reduce residual(s).
  
 
Warning: Convergence problem.  Taking smaller bias
step(s).  Bias step reduced 1 times.
 

Obtaining static solution:

 V(  drain  ) = 0.05        


prev           psi     n      p     psi     n      p  
direct          x      x      x     rhs    rhs    rhs 
   i    j  m  -5.00* -5.00* -5.00* -26.0* -17.3* -17.3*
-------------------------------------------------------
   1       N   2.000 -0.054  2.535 -14.92 -2.369 -2.645
   2       N   2.000  2.809  4.724 -15.24 -2.546 -2.935
   3       N   2.000  3.362  3.631 -15.34 -3.137 -3.322
   4       N   2.000  3.593  5.339 -15.16 -1.698 -2.344
   5       N   2.000  5.067  5.578 -14.94 -2.197 -1.897
   6       N   2.000  5.004  5.639 -13.33 -0.134 -1.599
   7       N   2.000  5.561  5.966 -13.63 -0.634 -1.234
   8       N   2.000  6.291  6.251 -13.07  0.412 -0.252
   9       N   2.000  7.567  5.017 -13.34  0.002 -0.371
  10       N   2.000  6.432  6.037 -13.47 -0.193 -0.486
  11       N   2.000  7.311  6.564 -13.40  0.012 -0.083
  12       N   2.000  7.245  6.275 -13.48  0.055 -0.094
  13       N   2.000  7.569  6.252 -13.29 -0.019  0.159
  14       N   2.000  6.281  7.388 -13.22 -0.023 -0.068
  15       N   2.000  6.329  6.149 -13.40 -0.286 -0.167
  16       N   2.000  7.850  7.813 -11.57  2.733  2.579
  17       N   2.000  7.629  6.817 -11.82  2.955  2.747
  18       N   2.000  8.845  8.525 -10.24  5.422  5.460
  19       N   2.000  11.05  10.53 -9.247  11.01  11.01
  20       N   2.000  11.38  11.13 -8.568  11.71  11.71
  21       N   2.000  11.25  10.27 -9.798  11.55  11.55
  22       A   2.000  11.38  11.38 -7.948  12.38  12.38

Warning: Solution algorithm cannot reduce residual(s).
  
 
Warning: Convergence problem.  Taking smaller bias
step(s).  Bias step reduced 2 times.
 

Obtaining static solution:

 V(  drain  ) = 0.025       


prev           psi     n      p     psi     n      p  
direct          x      x      x     rhs    rhs    rhs 
   i    j  m  -5.00* -5.00* -5.00* -26.0* -17.3* -17.3*
-------------------------------------------------------
   1       N  -0.005 -1.119 -0.582 -29.3* -3.269 -8.251
   2       N  -1.404 -2.461 -1.562 -29.8* -7.562 -10.29
   3       A  -2.312 -3.130 -2.533 -29.8* -10.88 -10.97
   4       A  -2.703 -3.536 -2.940 -29.8* -11.32 -11.40
   5       N  -3.030 -3.855 -3.262 -29.8* -13.48 -13.65

Electrode       Va(V)      Jn(A/um)   Jp(A/um)   Jc(A/um)   Jt(A/um)
====================================================================
gate           1.500e+00 -0.000e+00 -0.000e+00 -0.000e+00  0.000e+00
source         0.000e+00 -2.192e-06 -5.152e-22 -2.192e-06 -2.192e-06
drain          2.500e-02  2.192e-06  2.676e-22  2.192e-06  2.192e-06
substrate      0.000e+00  5.011e-23  4.455e-19  4.455e-19  4.455e-19
Total                                                     -3.209e-18

Time for bias point:   2.00 sec. 
Total time:           24.38 sec. 
  

Obtaining static solution:

 V(  drain  ) = 0.05        


proj           psi     n      p     psi     n      p  
direct          x      x      x     rhs    rhs    rhs 
   i    j  m  -5.00* -5.00* -5.00* -26.0* -17.3* -17.3*
-------------------------------------------------------
   1       N  -1.251 -2.122 -1.476 -29.8* -9.901 -9.866
   2       N  -2.237 -3.064 -2.559 -29.8* -11.89 -12.04

Electrode       Va(V)      Jn(A/um)   Jp(A/um)   Jc(A/um)   Jt(A/um)
====================================================================
gate           1.500e+00 -0.000e+00 -0.000e+00 -0.000e+00  0.000e+00
source         0.000e+00 -4.314e-06 -1.139e-21 -4.314e-06 -4.314e-06
drain          5.000e-02  4.314e-06  4.665e-22  4.314e-06  4.314e-06
substrate      0.000e+00  5.011e-23  4.316e-19  4.317e-19  4.317e-19
Total                                                     -3.153e-17

Time for bias point:   1.00 sec. 
Total time:           25.38 sec. 
  

Obtaining static solution:

 V(  drain  ) = 0.1         


proj           psi     n      p     psi     n      p  
direct          x      x      x     rhs    rhs    rhs 
   i    j  m  -5.00* -5.00* -5.00* -26.0* -17.3* -17.3*
-------------------------------------------------------
   1       N  -0.904 -1.789 -1.108 -29.8* -9.197 -9.027
   2       N  -1.886 -2.724 -2.315 -29.7* -11.18 -11.30
   3       A  -2.063 -2.860 -2.310 -29.8* -11.23 -11.37
   4       N  -2.753 -3.555 -3.013 -29.8* -12.90 -13.10

Electrode       Va(V)      Jn(A/um)   Jp(A/um)   Jc(A/um)   Jt(A/um)
====================================================================
gate           1.500e+00 -0.000e+00 -0.000e+00 -0.000e+00  0.000e+00
source         0.000e+00 -8.329e-06 -2.676e-21 -8.329e-06 -8.329e-06
drain          1.000e-01  8.329e-06  5.881e-22  8.329e-06  8.329e-06
substrate      0.000e+00  5.011e-23  4.714e-19  4.714e-19  4.714e-19
Total                                                      4.046e-18

Time for bias point:   2.00 sec. 
Total time:           27.38 sec. 
  

Obtaining static solution:

 V(  drain  ) = 0.2         


proj           psi     n      p     psi     n      p  
direct          x      x      x     rhs    rhs    rhs 
   i    j  m  -5.00* -5.00* -5.00* -26.0* -17.3* -17.3*
-------------------------------------------------------
   1       N  -0.459 -1.343 -0.627 -29.8* -8.273 -7.967
   2       N  -1.347 -2.215 -1.883 -29.8* -10.09 -10.06
   3       A  -1.799 -2.577 -2.029 -29.8* -10.31 -10.41
   4       N  -2.077 -2.868 -2.336 -29.8* -11.52 -11.74