# -------------- TOX = 0.017 um --------------
go atlas
************ W A R N I N G ************
 You do not seem to be running a
 supported release of Linux. (CentOS)
***************************************
************ W A R N I N G ************
 You do not seem to be running a
 supported release of Linux. (CentOS)
***************************************
executing /home/silvaco/lib/atlas/5.22.1.R/x86_64-linux/atlas.exe


                                   A T L A S

            Version:  atlas 5.22.1.R (Fri Dec 18 15:27:29 PST 2015)

                           Copyright (c) 1984 - 2015
                        Silvaco Inc. All rights reserved

    We acknowledge the contribution of the following collaborative partners:

                              Stanford University



               ======================================================

                  ATLAS                           : enabled

                  S-PISCES                        : enabled

                  BLAZE                           : enabled

                  GIGA                            : enabled

                  LUMINOUS                        : enabled

                  LED                             : enabled

                  TFT                             : enabled

                  ORGANIC DISPLAY                 : enabled

                  ORGANIC SOLAR                   : enabled

                  MIXEDMODE                       : enabled

                  LASER                           : enabled

                  VCSEL                           : enabled

                  FERRO                           : enabled

                  QUANTUM                         : enabled

                  NOISE                           : enabled

                  REM                             : not licensed

                  MAGNETIC                        : enabled

                  DEVICE3D                        : enabled

                  THERMAL3D                       : enabled

                  GIGA3D                          : enabled

                  MIXEDMODE3D                     : enabled

                  TFT3D                           : enabled

                  QUANTUM3D                       : enabled

                  LUMINOUS3D                      : enabled

                  REM3D                           : not licensed

                  MAGNETIC3D                      : enabled

                  LED3D                           : enabled

                  LASER3D                         : enabled

                  MIXEDMODE XL                    : enabled

                  S-PISCES BUNDLE                 : not licensed

                  BLAZE BUNDLE                    : not licensed

                  TFT BUNDLE                      : not licensed

                  ORGANIC BUNDLE                  : not licensed

                  DEVICE3D BUNDLE                 : not licensed

                  TFT3D BUNDLE                    : not licensed

               ======================================================

                           Mon Oct 20 12:54:32 2025

                             Executing on host: khu
                   Current SFLM Server: 163.180.144.59:3162/



ATLAS> mesh space.mult=1.0
	####################################################
	######                                        ######
	######           Running on 1 CPU             ######
	######           12 CPUs available            ######
	######                                        ######
	####################################################
ATLAS> x.mesh loc=0.00 spacing=0.1
ATLAS> x.mesh loc=1.15 spacing=0.01
ATLAS> x.mesh loc=1.50 spacing=0.02
ATLAS> x.mesh loc=1.85 spacing=0.01
ATLAS> x.mesh loc=3.00 spacing=0.1
ATLAS> y.mesh loc=-0.017 spacing=0.02
ATLAS> y.mesh loc=0.000  spacing=0.01
ATLAS> y.mesh loc=0.200  spacing=0.02
ATLAS> y.mesh loc=0.600  spacing=0.02
ATLAS> y.mesh loc=1.800  spacing=0.1
ATLAS> 
ATLAS> region num=1 y.max=0     material=SiO2
ATLAS> region num=2 y.min=0 y.max=0.2 material=Silicon
ATLAS> region num=3 y.min=0.2 y.max=0.6 material=SiO2
ATLAS> region num=4 y.min=0.6 y.max=1.8 material=Silicon
ATLAS> 
ATLAS> electrode name=gate      x.min=1.0 x.max=2.0 y.min=-0.017 y.max=-0.017

Electrode #1
Name: gate                
 Number of boundary nodes: 69
 Dimensions in microns: 
       min         max
 x  1.001e+00   1.999e+00 
 y -1.700e-02  -1.700e-02 

ATLAS> electrode name=source    x.min=0.0 x.max=0.5 y.min=0.0    y.max=0.0

Electrode #2
Name: source              
 Number of boundary nodes: 7
 Dimensions in microns: 
       min         max
 x  0.000e+00   4.933e-01 
 y  0.000e+00   0.000e+00 

Warning:  Electrode shortened in X-direction.


ATLAS> electrode name=drain     x.min=2.5 x.max=3.0 y.min=0.0    y.max=0.0

Electrode #3
Name: drain               
 Number of boundary nodes: 7
 Dimensions in microns: 
       min         max
 x  2.507e+00   3.000e+00 
 y  0.000e+00   0.000e+00 

Warning:  Electrode shortened in X-direction.


ATLAS> electrode name=substrate x.min=0.0 x.max=3.0 y.min=1.8    y.max=1.8

Electrode #4
Name: substrate           
 Number of boundary nodes: 107
 Dimensions in microns: 
       min         max
 x  0.000e+00   3.000e+00 
 y  1.800e+00   1.800e+00 

ATLAS> 
ATLAS> doping uniform p.type conc=1e17 region=2

Mesh
 Type:               non-cylindrical
 Total grid points:  6527
 Total triangles  :  12720
 Obtuse triangles :  0  (0 %)
ATLAS> doping uniform p.type conc=1e17 region=4
ATLAS> doping gaussian n.type conc=1e20 characteristic=0.2 region=2 x.left=0.0 x.right=1.0 y.top=0.0 ratio.lateral=0.1
ATLAS> doping gaussian n.type conc=1e20 characteristic=0.2 region=2 x.left=2.0 x.right=3.0 y.top=0.0 ratio.lateral=0.1
ATLAS> 
ATLAS> contact name=gate workfunction=4.15
ATLAS> models cvt srh auger bgn fermi impact print
ATLAS> 
ATLAS> save outf=tox020_structure.str

Starting module:   SPISCES                        


MASTER format file written to tox020_structure.str at Mon Oct 20 12:54:33 2025

ATLAS> 
ATLAS> method gummel autonr


CONSTANTS:
 Boltzmann's constant  = 1.38066e-23 J/K
 Elementary charge     = 1.60219e-19 C
 Permitivity in vacuum = 8.85419e-14 F/cm
 Temperature           = 300 K
 Thermal voltage       = 0.025852 V

REGIONAL MATERIAL PARAMETERS:
 Region       :        1         2         3         4         5         6         7         8   
 Material     :       SiO2   Silicon      SiO2   Silicon Conductor Conductor Conductor Conductor 
 Type         :    insulator semicond. insulator semicond.   metal     metal     metal     metal  

 Average Composition Fraction 
 X-composition:         0         0         0         0         0         0         0         0 
 Y-composition:         0         0         0         0         0         0         0         0 

 Band Parameters
 Epsilon      :       3.9      11.8       3.9      11.8                                         
 Eg (eV)      :                1.08                1.08                                         
 Chi (eV)     :                4.17                4.17                                         
 Nc (per cc)  :             2.8e+19             2.8e+19                                         
 Nv (per cc)  :            1.04e+19            1.04e+19                                         
 ni (per cc)  :            1.45e+10            1.45e+10                                         

 Bandgap narrowing parameters 
 bgn.e (eV)   :               0.009               0.009                                         
 bgn.n (/cc)  :               1e+17               1e+17                                         
 bgn.c        :                 0.5                 0.5                                         
 ubgn.b       :             3.1e+12             3.1e+12                                         
 ubgn.c       :             3.9e-05             3.9e-05                                         
 bgn.shnk.me  :               0.321               0.321                                         
 bgn.shnk.mh  :               0.346               0.346                                         
 bgn.shnk.eps :                11.7                11.7                                         
 bgn.shnk.ge  :                  12                  12                                         
 bgn.shnk.gh  :                   4                   4                                         

 Effective Richardson Constants
 An*          :                 110                 110                                         
 Ap*          :                  30                  30                                         

 Incomplete Ionization Parameters
 Gc           :                   2                   2                                         
 Gv           :                   4                   4                                         
 Ed (eV)      :               0.044               0.044                                         
 Ea (eV)      :               0.045               0.045                                         

 Recombination Parameters
 taun0        :               1e-07               1e-07                                         
 taup0        :               1e-07               1e-07                                         
 etrap        :                   0                   0                                         
 nsrhn        :               5e+16               5e+16                                         
 nsrhp        :               5e+16               5e+16                                         
 ksrhtn       :              0.0025              0.0025                                         
 ksrhtp       :              0.0025              0.0025                                         
 ksrhcn       :               3e-13               3e-13                                         
 ksrhcp       :            1.18e-12            1.18e-12                                         
 ksrhgn       :                1.77                1.77                                         
 ksrhgp       :                0.57                0.57                                         
 nsrhn        :               5e+16               5e+16                                         
 nsrhp        :               5e+16               5e+16                                         
 augn         :             2.8e-31             2.8e-31                                         
 augp         :             9.9e-32             9.9e-32                                         
 augkn        :                   0                   0                                         
 augkp        :                   0                   0                                         
 kaugcn       :            1.83e-31            1.83e-31                                         
 kaugcp       :            2.78e-31            2.78e-31                                         
 kaugdn       :                1.18                1.18                                         
 kaugdp       :                0.72                0.72                                         
 aug.cnl      :             2.2e-31             2.2e-31                                         
 aug.cpl      :             9.2e-32             9.2e-32                                         
 aug.chi      :            1.66e-30            1.66e-30                                         
 hns.ae       :             6.7e-32             6.7e-32                                         
 hns.ah       :             7.2e-32             7.2e-32                                         
 hns.be       :            2.45e-31            2.45e-31                                         
 hns.bh       :             4.5e-33             4.5e-33                                         
 hns.ce       :            -2.2e-32            -2.2e-32                                         
 hns.ch       :            2.63e-32            2.63e-32                                         
 hns.he       :                3.47                3.47                                         
 hns.hh       :                8.26                8.26                                         
 hns.n0e      :               1e+18               1e+18                                         
 hns.p0e      :               1e+18               1e+18                                         
 copt         :                   0                   0                                         

 Impact Ionization Model Parameters (Selberherr model)
 an1          :            7.03e+05            7.03e+05                                         
 an2          :            7.03e+05            7.03e+05                                         
 ap1          :            6.71e+05            6.71e+05                                         
 ap2          :            1.58e+06            1.58e+06                                         
 bn1          :            1.23e+06            1.23e+06                                         
 bn2          :            1.23e+06            1.23e+06                                         
 bp1          :            1.69e+06            1.69e+06                                         
 bp2          :            2.04e+06            2.04e+06                                         
 betan        :                   1                   1                                         
 betap        :                   1                   1                                         
 egran        :               4e+05               4e+05                                         

 Band-to-band tunneling Parameters
 mass.tunnel  :                0.25                0.25                                         
 me.tunnel    :               0.322               0.322                                         
 mh.tunnel    :               0.549               0.549                                         

 Thermal Velocities
 vn (cm/s)    :            1.08e+07            1.08e+07                                         
 vp (cm/s)    :             1.3e+07             1.3e+07                                         

 Saturation Velocities
 vsatn (cm/s) :            1.03e+07            1.03e+07                                         
 vsatp (cm/s) :            1.03e+07            1.03e+07                                         

REGIONAL MODEL FLAGS:
 Region:          1    2    3    4    5    6    7    8 
 SRH                   T         T                      
 consrh                F         F                      
 klasrh                F         F                      
 Auger                 T         T                      
 klaaug                F         F                      
 picaug                F         F                      
 hnsaug                F         F                      
 auggen                F         F                      
 optr                  F         F                      
 optr.gb               F         F                      
 bgn(std/kla)          T         T                      
 ubgn                  F         F                      
 bgn.alamo             F         F                      
 bgn.bennett           F         F                      
 bgn.schenk            F         F                      
 incomplete            F         F                      
 bbt                   F         F                      
 bbtauto               F         F                      
 bbthurkx              F         F                      
 bbtkane               F         F                      
 bbtschenk             F         F                      
 bbtnonlocal           F         F                      
 tat(local)            F         F                      
 tatnonlocal           F         F                      
 tat(coulombic)        F         F                      
 impact                T         T                      
 Boltzmann             F         F                      
 Fermi-Dirac           T         T                      

Gain and Rsp scaling
  Gain scale factor  :         1         1         1         1 
  Rsp scale factor   :         1         1         1         1 


REGIONAL MOBILITY MODEL SUMMARY:

  Region #2:

    Model for Electrons:

      Concentration Dependent Mobility
      @ Temperature =     300 Kelvin 
        Using CVT low field mobility model.
          cs    = 3.43e+20
          cr    = 9.68e+16
          alpha = 0.68
          beta  = 2
          gamma = 2.5
          pc    = 0
          mu0   = 52.2
          mu1   = 43.4
          mumax = 1417

      Parallel Field Dependent Mobility
        Using parallel field model.
          Using built-in Silicon model for Vsat.
          alpha = 2.4e+07
          theta = 0.8
          tnom = 600
          beta = 2

      Perpendicular Field Dependent Mobility
        Using CVT model.
          B = 4.75e+07
          C = 174000
          D = 0.333333
          E = 1
          tau = 0.125
          delta = 5.82e+14
          k = 2

    Model for Holes:

      Concentration Dependent Mobility
      @ Temperature =     300 Kelvin 
        Using CVT low field mobility model.
          cs    = 6.1e+20
          cr    = 2.23e+17
          alpha = 0.71
          beta  = 2
          gamma = 2.2
          pc    = 9.23e+16
          mu0   = 44.9
          mu1   = 29
          mumax = 470.5

      Parallel Field Dependent Mobility
        Using parallel field model.
          Using built-in Silicon model for Vsat.
          alpha = 2.4e+07
          theta = 0.8
          tnom = 600
          beta = 1

      Perpendicular Field Dependent Mobility
        Using CVT model.
          B = 9.925e+06
          C = 884200
          D = 0.333333
          E = 1
          tau = 0.0317
          delta = 2.0546e+14
          k = 2

  Region #4:

    Model for Electrons:

      Concentration Dependent Mobility
      @ Temperature =     300 Kelvin 
        Using CVT low field mobility model.
          cs    = 3.43e+20
          cr    = 9.68e+16
          alpha = 0.68
          beta  = 2
          gamma = 2.5
          pc    = 0
          mu0   = 52.2
          mu1   = 43.4
          mumax = 1417

      Parallel Field Dependent Mobility
        Using parallel field model.
          Using built-in Silicon model for Vsat.
          alpha = 2.4e+07
          theta = 0.8
          tnom = 600
          beta = 2

      Perpendicular Field Dependent Mobility
        Using CVT model.
          B = 4.75e+07
          C = 174000
          D = 0.333333
          E = 1
          tau = 0.125
          delta = 5.82e+14
          k = 2

    Model for Holes:

      Concentration Dependent Mobility
      @ Temperature =     300 Kelvin 
        Using CVT low field mobility model.
          cs    = 6.1e+20
          cr    = 2.23e+17
          alpha = 0.71
          beta  = 2
          gamma = 2.2
          pc    = 9.23e+16
          mu0   = 44.9
          mu1   = 29
          mumax = 470.5

      Parallel Field Dependent Mobility
        Using parallel field model.
          Using built-in Silicon model for Vsat.
          alpha = 2.4e+07
          theta = 0.8
          tnom = 600
          beta = 1

      Perpendicular Field Dependent Mobility
        Using CVT model.
          B = 9.925e+06
          C = 884200
          D = 0.333333
          E = 1
          tau = 0.0317
          delta = 2.0546e+14
          k = 2


Contacts:
Name         Num  Work fn    Resist.    Capacit.   Induct.
                   (eV)      (Ohms)     (Farads)   (Henries)
gate          1     4.150   0.000E+00  0.000E+00  0.000E+00
source        2     0.000   0.000E+00  0.000E+00  0.000E+00
drain         3     0.000   0.000E+00  0.000E+00  0.000E+00
substrate     4     0.000   0.000E+00  0.000E+00  0.000E+00
  
ATLAS> solve init

Obtaining static solution:


init           psi    psi 
direct          x     rhs 
   i    j  m  -5.00* -26.0*
---------------------------
   1    1  G   0.000 -15.80
   1    2  G  -0.301 -15.85
   1    3  G  -0.477 -15.91
   1    4  G  -0.602 -15.97
   1    5  G  -0.699 -16.04
   1    6  G  -0.778 -16.13
   1    7  G  -0.845 -16.24
   1    8  G  -0.903 -16.39
   1    9  G  -0.954 -16.61
   1   10  G  -1.256 -17.71
   1   11  G  -11.2* -27.7*
  
ATLAS> solve name=gate vgate=3.0

Obtaining static solution:

 V(   gate  ) = 3           


prev           psi     n      p     psi     n      p  
direct          x      x      x     rhs    rhs    rhs 
   i    j  m  -5.00* -5.00* -5.00* -26.0* -17.3* -17.3*
-------------------------------------------------------
   1    1  G  -0.014               -15.57              
   1    2  G  -0.308               -15.23              
   1    3  G  -0.483               -15.41              
   1    4  G  -0.607               -15.32              
   1    5  G  -0.707               -15.36              
   1    6  G  -0.784               -15.63              
   1    7  G  -0.851               -15.73              
   1    8  G  -0.908               -15.77              
   1    9  G  -0.958               -15.81              
   1   10  G  -1.004               -15.86              
   1   11  G  -1.045               -15.91              
   1   12  G  -1.082               -15.97              
   1   13  G  -1.117               -16.05              
   1   14  G  -1.149               -16.13              
   1   15  G  -1.173               -16.24              
   1   16  G  -1.169               -16.39              
   1   17  G  -1.173               -16.61              
   1   18  G  -1.475               -17.09              
   1   19  G  -14.6*               -29.1*              
   1   20  G         -13.9*               -15.34       
   1   21  G                -6.28*               -19.0*

Electrode       Va(V)      Jn(A/um)   Jp(A/um)   Jc(A/um)   Jt(A/um)
====================================================================
gate           3.000e+00 -0.000e+00 -0.000e+00 -0.000e+00  0.000e+00
source         0.000e+00  3.112e-17  2.073e-33  3.112e-17  3.112e-17
drain          0.000e+00 -2.747e-16  6.458e-33 -2.747e-16 -2.747e-16
substrate      0.000e+00 -0.000e+00 -0.000e+00 -0.000e+00  0.000e+00
Total                                                     -2.436e-16

Time for bias point:   1.50 sec. 
Total time:            2.36 sec. 
  
ATLAS> 
ATLAS> method newton trap autonr
ATLAS> log outf=tox020_vds.log
ATLAS> solve name=drain vdrain=0.0 cname=drain

Obtaining static solution:


Warning: In line #  32
Need to define BOTH Current Value and  Electrode no. for Compliance limit.    2

prev           psi     n      p     psi     n      p  
direct          x      x      x     rhs    rhs    rhs 
   i    j  m  -5.00* -5.00* -5.00* -26.0* -17.3* -17.3*
-------------------------------------------------------
   1       N  -6.28* -7.01* -6.28* -29.8* -16.37 -17.9*

Electrode       Va(V)      Jn(A/um)   Jp(A/um)   Jc(A/um)   Jt(A/um)
====================================================================
gate           3.000e+00 -0.000e+00 -0.000e+00 -0.000e+00  0.000e+00
source         0.000e+00 -1.493e-17 -3.582e-23 -1.493e-17 -1.493e-17
drain          0.000e+00 -4.005e-17 -3.582e-23 -4.005e-17 -4.005e-17
substrate      0.000e+00  5.011e-23  4.860e-19  4.860e-19  4.860e-19
Total                                                     -5.450e-17

Time for bias point:   0.50 sec. 
Total time:            2.86 sec. 
  
ATLAS> solve name=drain vstep=0.05 vfinal=3.0 cname=drain

Obtaining static solution:

 V(  drain  ) = 0.05        


Warning: In line #  33
Need to define BOTH Current Value and  Electrode no. for Compliance limit.    2

prev           psi     n      p     psi     n      p  
direct          x      x      x     rhs    rhs    rhs 
   i    j  m  -5.00* -5.00* -5.00* -26.0* -17.3* -17.3*
-------------------------------------------------------
   1       N   2.000 -0.050  2.540 -14.91 -2.369 -2.645
   2       N   2.000  2.827  4.712 -15.23 -2.536 -2.935
   3       N   2.000  3.419  3.422 -15.49 -3.169 -3.271
   4       N   2.000  3.282  4.310 -15.08 -3.214 -3.131
   5       N   2.000  5.472  5.472 -14.39 -2.073 -2.312
   6       N   2.000  6.266  6.045 -13.69 -1.386 -1.237
   7       N   2.000  6.588  7.064 -13.55  0.042 -0.214
   8       N   2.000  7.284  6.340 -13.17  0.406 -0.114
   9       N   2.000  7.239  6.431 -13.14 -0.091 -0.063
  10       N   2.000  6.555  7.382 -12.29  2.209  2.160
  11       N   2.000  7.045  9.549 -11.32  5.508  5.512
  12       N   2.000  7.065  9.324 -11.23  7.487  7.486
  13       N   2.000  10.12  7.564 -10.50  10.03  10.03
  14       N   2.000  8.873  9.073 -11.59  10.27  10.27
  15       A   2.000  11.38  10.25 -8.075  11.29  11.29
  16       N   2.000  11.38  10.34 -8.531  11.36  11.36
  17       N   2.000  11.38  10.64 -8.919  11.40  11.40
  18       N   2.000  11.38  10.63 -9.150  11.57  11.57
  19       N   2.000  11.38  9.674 -9.451  11.58  11.58
  20       N   2.000  10.91  10.05 -9.752  11.40  11.40
  21       N   2.000  11.38  10.39 -10.05  11.50  11.50
  22       N   2.000  10.86  10.39 -10.44  11.62  11.62
  23       N   2.000  5.905  8.703 -10.70  11.13  11.13
  24       N   2.000  10.09  9.352 -11.32  11.39  11.39
  25       N   2.000  11.38  11.19 -10.65  11.48  11.48

Warning: Solution algorithm cannot reduce residual(s).
  
 
Warning: Convergence problem.  Taking smaller bias
step(s).  Bias step reduced 1 times.
 

Obtaining static solution:

 V(  drain  ) = 0.025       


prev           psi     n      p     psi     n      p  
direct          x      x      x     rhs    rhs    rhs 
   i    j  m  -5.00* -5.00* -5.00* -26.0* -17.3* -17.3*
-------------------------------------------------------
   1       N  -0.005 -1.200 -0.589 -29.4* -3.269 -8.272
   2       N  -1.424 -2.311 -1.636 -29.8* -7.562 -10.32
   3       A  -1.958 -2.683 -2.180 -29.8* -10.60 -10.68
   4       A  -2.978 -3.723 -3.247 -29.8* -11.72 -11.77
   5       N  -3.519 -4.244 -3.742 -29.8* -14.46 -14.62

Electrode       Va(V)      Jn(A/um)   Jp(A/um)   Jc(A/um)   Jt(A/um)
====================================================================
gate           3.000e+00 -0.000e+00 -0.000e+00 -0.000e+00  0.000e+00
source         0.000e+00 -5.935e-06 -5.251e-22 -5.935e-06 -5.935e-06
drain          2.500e-02  5.935e-06  2.477e-22  5.935e-06  5.935e-06
substrate      0.000e+00  5.011e-23  4.025e-19  4.026e-19  4.026e-19
Total                                                      2.351e-17

Time for bias point:   2.00 sec. 
Total time:           16.86 sec. 
  

Obtaining static solution:

 V(  drain  ) = 0.05        


proj           psi     n      p     psi     n      p  
direct          x      x      x     rhs    rhs    rhs 
   i    j  m  -5.00* -5.00* -5.00* -26.0* -17.3* -17.3*
-------------------------------------------------------
   1       N  -1.295 -2.058 -1.507 -29.7* -9.988 -9.931
   2       N  -1.874 -2.611 -2.138 -29.7* -11.16 -11.32
   3       A  -1.982 -2.710 -2.214 -29.8* -11.18 -11.34
   4       N  -2.643 -3.375 -2.888 -29.8* -12.70 -12.86

Electrode       Va(V)      Jn(A/um)   Jp(A/um)   Jc(A/um)   Jt(A/um)
====================================================================
gate           3.000e+00 -0.000e+00 -0.000e+00 -0.000e+00  0.000e+00
source         0.000e+00 -1.180e-05 -1.185e-21 -1.180e-05 -1.180e-05
drain          5.000e-02  1.180e-05  4.156e-22  1.180e-05  1.180e-05
substrate      0.000e+00  5.011e-23  4.686e-19  4.687e-19  4.687e-19
Total                                                      3.561e-17

Time for bias point:   2.00 sec. 
Total time:           18.86 sec. 
  

Obtaining static solution:

 V(  drain  ) = 0.1         


proj           psi     n      p     psi     n      p  
direct          x      x      x     rhs    rhs    rhs 
   i    j  m  -5.00* -5.00* -5.00* -26.0* -17.3* -17.3*
-------------------------------------------------------
   1       N  -0.892 -1.663 -1.094 -29.8* -9.177 -9.028
   2       N  -1.564 -2.317 -1.898 -29.8* -10.53 -10.68
   3       A  -1.781 -2.506 -2.013 -29.7* -10.60 -10.77
   4       N  -2.136 -2.869 -2.389 -29.8* -11.66 -11.85
   5       A  -3.175 -3.902 -3.411 -29.8* -12.38 -12.57
   6       N  -4.009 -4.743 -4.265 -29.7* -15.41 -15.60

Electrode       Va(V)      Jn(A/um)   Jp(A/um)   Jc(A/um)   Jt(A/um)
====================================================================
gate           3.000e+00 -0.000e+00 -0.000e+00 -0.000e+00  0.000e+00
source         0.000e+00 -2.331e-05 -2.836e-21 -2.331e-05 -2.331e-05
drain          1.000e-01  2.331e-05  5.085e-22  2.331e-05  2.331e-05
substrate      0.000e+00  5.011e-23  4.692e-19  4.693e-19  4.693e-19
Total                                                     -5.005e-17

Time for bias point:   2.00 sec. 
Total time:           20.86 sec. 
  

Obtaining static solution:

 V(  drain  ) = 0.15        


proj           psi     n      p     psi     n      p  
direct          x      x      x     rhs    rhs    rhs 
   i    j  m  -5.00* -5.00* -5.00* -26.0* -17.3* -17.3*
-------------------------------------------------------
   1       N  -0.901 -1.689 -1.065 -29.8* -9.179 -8.886
   2       N  -1.493 -2.240 -1.803 -29.8* -10.37 -10.55
   3       A  -1.683 -2.409 -1.907 -29.8* -10.43 -10.62
   4       N  -2.080 -2.815 -2.330 -29.7* -11.54 -11.75
   5       A  -3.166 -3.893 -3.393 -29.8* -12.31 -12.51
   6       N  -4.024 -4.759 -4.276 -29.8* -15.43 -15.63

Electrode       Va(V)      Jn(A/um)   Jp(A/um)   Jc(A/um)   Jt(A/um)
====================================================================
gate           3.000e+00 -0.000e+00 -0.000e+00 -0.000e+00  0.000e+00
source         0.000e+00 -3.447e-05 -4.809e-21 -3.447e-05 -3.447e-05
drain          1.500e-01  3.447e-05  4.120e-22  3.447e-05  3.447e-05
substrate      0.000e+00  5.011e-23  4.845e-19  4.846e-19  4.846e-19
Total                                                      7.789e-18

Time for bias point:   2.50 sec. 
Total time:           23.36 sec. 
  

Obtaining static solution:
