# --- TSi = 0.07 um, Lg = 1.00 um ---
go atlas
************ W A R N I N G ************
 You do not seem to be running a
 supported release of Linux. (CentOS)
***************************************
************ W A R N I N G ************
 You do not seem to be running a
 supported release of Linux. (CentOS)
***************************************
executing /home/silvaco/lib/atlas/5.22.1.R/x86_64-linux/atlas.exe


                                   A T L A S

            Version:  atlas 5.22.1.R (Fri Dec 18 15:27:29 PST 2015)

                           Copyright (c) 1984 - 2015
                        Silvaco Inc. All rights reserved

    We acknowledge the contribution of the following collaborative partners:

                              Stanford University



               ======================================================

                  ATLAS                           : enabled

                  S-PISCES                        : enabled

                  BLAZE                           : enabled

                  GIGA                            : enabled

                  LUMINOUS                        : enabled

                  LED                             : enabled

                  TFT                             : enabled

                  ORGANIC DISPLAY                 : enabled

                  ORGANIC SOLAR                   : enabled

                  MIXEDMODE                       : enabled

                  LASER                           : enabled

                  VCSEL                           : enabled

                  FERRO                           : enabled

                  QUANTUM                         : enabled

                  NOISE                           : enabled

                  REM                             : not licensed

                  MAGNETIC                        : enabled

                  DEVICE3D                        : enabled

                  THERMAL3D                       : enabled

                  GIGA3D                          : enabled

                  MIXEDMODE3D                     : enabled

                  TFT3D                           : enabled

                  QUANTUM3D                       : enabled

                  LUMINOUS3D                      : enabled

                  REM3D                           : not licensed

                  MAGNETIC3D                      : enabled

                  LED3D                           : enabled

                  LASER3D                         : enabled

                  MIXEDMODE XL                    : enabled

                  S-PISCES BUNDLE                 : not licensed

                  BLAZE BUNDLE                    : not licensed

                  TFT BUNDLE                      : not licensed

                  ORGANIC BUNDLE                  : not licensed

                  DEVICE3D BUNDLE                 : not licensed

                  TFT3D BUNDLE                    : not licensed

               ======================================================

                           Mon Oct 20 13:22:52 2025

                             Executing on host: khu
                   Current SFLM Server: 163.180.144.59:3162/



ATLAS> 
ATLAS> mesh space.mult=1.0
	####################################################
	######                                        ######
	######           Running on 1 CPU             ######
	######           12 CPUs available            ######
	######                                        ######
	####################################################
ATLAS> x.mesh loc=0.00  spacing=0.1
ATLAS> x.mesh loc=1.15 spacing=0.01
ATLAS> x.mesh loc=1.5  spacing=0.02
ATLAS> x.mesh loc=1.85 spacing=0.01
ATLAS> x.mesh loc=3.00 spacing=0.1
ATLAS> y.mesh loc=-0.017 spacing=0.02
ATLAS> y.mesh loc=0.000  spacing=0.01
ATLAS> y.mesh loc=0.070  spacing=0.02
ATLAS> y.mesh loc=0.470  spacing=0.02
ATLAS> y.mesh loc=1.800  spacing=0.1
ATLAS> region num=1 y.max=0      material=SiO2
ATLAS> region num=2 y.min=0 y.max=0.07  material=Silicon
ATLAS> region num=3 y.min=0.07 y.max=0.47 material=SiO2
ATLAS> region num=4 y.min=0.47 y.max=1.8  material=Silicon
ATLAS> electrode name=gate      x.min=1.00 x.max=2.00 y.min=-0.017 y.max=-0.017

Electrode #1
Name: gate                
 Number of boundary nodes: 69
 Dimensions in microns: 
       min         max
 x  1.001e+00   1.999e+00 
 y -1.700e-02  -1.700e-02 

ATLAS> electrode name=source    x.min=0.0  x.max=0.5  y.min=0.0    y.max=0.0

Electrode #2
Name: source              
 Number of boundary nodes: 7
 Dimensions in microns: 
       min         max
 x  0.000e+00   4.933e-01 
 y  0.000e+00   0.000e+00 

Warning:  Electrode shortened in X-direction.


ATLAS> electrode name=drain     x.min=2.5  x.max=3.0  y.min=0.0    y.max=0.0

Electrode #3
Name: drain               
 Number of boundary nodes: 7
 Dimensions in microns: 
       min         max
 x  2.507e+00   3.000e+00 
 y  0.000e+00   0.000e+00 

Warning:  Electrode shortened in X-direction.


ATLAS> electrode name=substrate x.min=0.0  x.max=3.0  y.min=1.8    y.max=1.8

Electrode #4
Name: substrate           
 Number of boundary nodes: 107
 Dimensions in microns: 
       min         max
 x  0.000e+00   3.000e+00 
 y  1.800e+00   1.800e+00 

ATLAS> doping uniform p.type conc=1e17 region=2

Mesh
 Type:               non-cylindrical
 Total grid points:  5885
 Total triangles  :  11448
 Obtuse triangles :  0  (0 %)
ATLAS> doping uniform p.type conc=1e17 region=4
ATLAS> doping gaussian n.type conc=1e20 characteristic=0.2 region=2 x.left=0.0 x.right=1.0 y.top=0.0 ratio.lateral=0.1
ATLAS> doping gaussian n.type conc=1e20 characteristic=0.2 region=2 x.left=2.0 x.right=3.0 y.top=0.0 ratio.lateral=0.1
ATLAS> contact name=gate workfunction=4.15
ATLAS> models cvt srh auger bgn fermi print temp=300
ATLAS> method gummel autonr


CONSTANTS:
 Boltzmann's constant  = 1.38066e-23 J/K
 Elementary charge     = 1.60219e-19 C
 Permitivity in vacuum = 8.85419e-14 F/cm
 Temperature           = 300 K
 Thermal voltage       = 0.025852 V

REGIONAL MATERIAL PARAMETERS:
 Region       :        1         2         3         4         5         6         7         8   
 Material     :       SiO2   Silicon      SiO2   Silicon Conductor Conductor Conductor Conductor 
 Type         :    insulator semicond. insulator semicond.   metal     metal     metal     metal  

 Average Composition Fraction 
 X-composition:         0         0         0         0         0         0         0         0 
 Y-composition:         0         0         0         0         0         0         0         0 

 Band Parameters
 Epsilon      :       3.9      11.8       3.9      11.8                                         
 Eg (eV)      :                1.08                1.08                                         
 Chi (eV)     :                4.17                4.17                                         
 Nc (per cc)  :             2.8e+19             2.8e+19                                         
 Nv (per cc)  :            1.04e+19            1.04e+19                                         
 ni (per cc)  :            1.45e+10            1.45e+10                                         

 Bandgap narrowing parameters 
 bgn.e (eV)   :               0.009               0.009                                         
 bgn.n (/cc)  :               1e+17               1e+17                                         
 bgn.c        :                 0.5                 0.5                                         
 ubgn.b       :             3.1e+12             3.1e+12                                         
 ubgn.c       :             3.9e-05             3.9e-05                                         
 bgn.shnk.me  :               0.321               0.321                                         
 bgn.shnk.mh  :               0.346               0.346                                         
 bgn.shnk.eps :                11.7                11.7                                         
 bgn.shnk.ge  :                  12                  12                                         
 bgn.shnk.gh  :                   4                   4                                         

 Effective Richardson Constants
 An*          :                 110                 110                                         
 Ap*          :                  30                  30                                         

 Incomplete Ionization Parameters
 Gc           :                   2                   2                                         
 Gv           :                   4                   4                                         
 Ed (eV)      :               0.044               0.044                                         
 Ea (eV)      :               0.045               0.045                                         

 Recombination Parameters
 taun0        :               1e-07               1e-07                                         
 taup0        :               1e-07               1e-07                                         
 etrap        :                   0                   0                                         
 nsrhn        :               5e+16               5e+16                                         
 nsrhp        :               5e+16               5e+16                                         
 ksrhtn       :              0.0025              0.0025                                         
 ksrhtp       :              0.0025              0.0025                                         
 ksrhcn       :               3e-13               3e-13                                         
 ksrhcp       :            1.18e-12            1.18e-12                                         
 ksrhgn       :                1.77                1.77                                         
 ksrhgp       :                0.57                0.57                                         
 nsrhn        :               5e+16               5e+16                                         
 nsrhp        :               5e+16               5e+16                                         
 augn         :             2.8e-31             2.8e-31                                         
 augp         :             9.9e-32             9.9e-32                                         
 augkn        :                   0                   0                                         
 augkp        :                   0                   0                                         
 kaugcn       :            1.83e-31            1.83e-31                                         
 kaugcp       :            2.78e-31            2.78e-31                                         
 kaugdn       :                1.18                1.18                                         
 kaugdp       :                0.72                0.72                                         
 aug.cnl      :             2.2e-31             2.2e-31                                         
 aug.cpl      :             9.2e-32             9.2e-32                                         
 aug.chi      :            1.66e-30            1.66e-30                                         
 hns.ae       :             6.7e-32             6.7e-32                                         
 hns.ah       :             7.2e-32             7.2e-32                                         
 hns.be       :            2.45e-31            2.45e-31                                         
 hns.bh       :             4.5e-33             4.5e-33                                         
 hns.ce       :            -2.2e-32            -2.2e-32                                         
 hns.ch       :            2.63e-32            2.63e-32                                         
 hns.he       :                3.47                3.47                                         
 hns.hh       :                8.26                8.26                                         
 hns.n0e      :               1e+18               1e+18                                         
 hns.p0e      :               1e+18               1e+18                                         
 copt         :                   0                   0                                         

 Band-to-band tunneling Parameters
 mass.tunnel  :                0.25                0.25                                         
 me.tunnel    :               0.322               0.322                                         
 mh.tunnel    :               0.549               0.549                                         

 Thermal Velocities
 vn (cm/s)    :            1.08e+07            1.08e+07                                         
 vp (cm/s)    :             1.3e+07             1.3e+07                                         

 Saturation Velocities
 vsatn (cm/s) :            1.03e+07            1.03e+07                                         
 vsatp (cm/s) :            1.03e+07            1.03e+07                                         

REGIONAL MODEL FLAGS:
 Region:          1    2    3    4    5    6    7    8 
 SRH                   T         T                      
 consrh                F         F                      
 klasrh                F         F                      
 Auger                 T         T                      
 klaaug                F         F                      
 picaug                F         F                      
 hnsaug                F         F                      
 auggen                F         F                      
 optr                  F         F                      
 optr.gb               F         F                      
 bgn(std/kla)          T         T                      
 ubgn                  F         F                      
 bgn.alamo             F         F                      
 bgn.bennett           F         F                      
 bgn.schenk            F         F                      
 incomplete            F         F                      
 bbt                   F         F                      
 bbtauto               F         F                      
 bbthurkx              F         F                      
 bbtkane               F         F                      
 bbtschenk             F         F                      
 bbtnonlocal           F         F                      
 tat(local)            F         F                      
 tatnonlocal           F         F                      
 tat(coulombic)        F         F                      
 impact                F         F                      
 Boltzmann             F         F                      
 Fermi-Dirac           T         T                      

Gain and Rsp scaling
  Gain scale factor  :         1         1         1         1 
  Rsp scale factor   :         1         1         1         1 


REGIONAL MOBILITY MODEL SUMMARY:

  Region #2:

    Model for Electrons:

      Concentration Dependent Mobility
      @ Temperature =     300 Kelvin 
        Using CVT low field mobility model.
          cs    = 3.43e+20
          cr    = 9.68e+16
          alpha = 0.68
          beta  = 2
          gamma = 2.5
          pc    = 0
          mu0   = 52.2
          mu1   = 43.4
          mumax = 1417

      Parallel Field Dependent Mobility
        Using parallel field model.
          Using built-in Silicon model for Vsat.
          alpha = 2.4e+07
          theta = 0.8
          tnom = 600
          beta = 2

      Perpendicular Field Dependent Mobility
        Using CVT model.
          B = 4.75e+07
          C = 174000
          D = 0.333333
          E = 1
          tau = 0.125
          delta = 5.82e+14
          k = 2

    Model for Holes:

      Concentration Dependent Mobility
      @ Temperature =     300 Kelvin 
        Using CVT low field mobility model.
          cs    = 6.1e+20
          cr    = 2.23e+17
          alpha = 0.71
          beta  = 2
          gamma = 2.2
          pc    = 9.23e+16
          mu0   = 44.9
          mu1   = 29
          mumax = 470.5

      Parallel Field Dependent Mobility
        Using parallel field model.
          Using built-in Silicon model for Vsat.
          alpha = 2.4e+07
          theta = 0.8
          tnom = 600
          beta = 1

      Perpendicular Field Dependent Mobility
        Using CVT model.
          B = 9.925e+06
          C = 884200
          D = 0.333333
          E = 1
          tau = 0.0317
          delta = 2.0546e+14
          k = 2

  Region #4:

    Model for Electrons:

      Concentration Dependent Mobility
      @ Temperature =     300 Kelvin 
        Using CVT low field mobility model.
          cs    = 3.43e+20
          cr    = 9.68e+16
          alpha = 0.68
          beta  = 2
          gamma = 2.5
          pc    = 0
          mu0   = 52.2
          mu1   = 43.4
          mumax = 1417

      Parallel Field Dependent Mobility
        Using parallel field model.
          Using built-in Silicon model for Vsat.
          alpha = 2.4e+07
          theta = 0.8
          tnom = 600
          beta = 2

      Perpendicular Field Dependent Mobility
        Using CVT model.
          B = 4.75e+07
          C = 174000
          D = 0.333333
          E = 1
          tau = 0.125
          delta = 5.82e+14
          k = 2

    Model for Holes:

      Concentration Dependent Mobility
      @ Temperature =     300 Kelvin 
        Using CVT low field mobility model.
          cs    = 6.1e+20
          cr    = 2.23e+17
          alpha = 0.71
          beta  = 2
          gamma = 2.2
          pc    = 9.23e+16
          mu0   = 44.9
          mu1   = 29
          mumax = 470.5

      Parallel Field Dependent Mobility
        Using parallel field model.
          Using built-in Silicon model for Vsat.
          alpha = 2.4e+07
          theta = 0.8
          tnom = 600
          beta = 1

      Perpendicular Field Dependent Mobility
        Using CVT model.
          B = 9.925e+06
          C = 884200
          D = 0.333333
          E = 1
          tau = 0.0317
          delta = 2.0546e+14
          k = 2


Contacts:
Name         Num  Work fn    Resist.    Capacit.   Induct.
                   (eV)      (Ohms)     (Farads)   (Henries)
gate          1     4.150   0.000E+00  0.000E+00  0.000E+00
source        2     0.000   0.000E+00  0.000E+00  0.000E+00
drain         3     0.000   0.000E+00  0.000E+00  0.000E+00
substrate     4     0.000   0.000E+00  0.000E+00  0.000E+00
  
ATLAS> solve init

Starting module:   SPISCES                        


Obtaining static solution:


init           psi    psi 
direct          x     rhs 
   i    j  m  -5.00* -26.0*
---------------------------
   1    1  G   0.000 -15.80
   1    2  G  -0.301 -15.85
   1    3  G  -0.477 -15.91
   1    4  G  -0.602 -15.97
   1    5  G  -0.699 -16.04
   1    6  G  -0.778 -16.13
   1    7  G  -0.845 -16.24
   1    8  G  -0.903 -16.39
   1    9  G  -0.954 -16.61
   1   10  G  -1.304 -17.72
   1   11  G  -8.89* -25.41
  
ATLAS> 
ATLAS> solve name=gate vgate=1.5

Obtaining static solution:

 V(   gate  ) = 1.5         


prev           psi     n      p     psi     n      p  
direct          x      x      x     rhs    rhs    rhs 
   i    j  m  -5.00* -5.00* -5.00* -26.0* -17.3* -17.3*
-------------------------------------------------------
   1    1  G  -0.707               -15.88              
   1    2  G  -0.310               -15.57              
   1    3  G  -0.490               -15.97              
   1    4  G  -0.611               -15.78              
   1    5  G  -0.707               -15.80              
   1    6  G  -0.784               -15.67              
   1    7  G  -0.851               -16.11              
   1    8  G  -0.859               -16.34              
   1    9  G  -0.857               -16.53              
   1   10  G  -0.969               -16.89              
   1   11  G  -6.44*               -22.55              
   1   12  G         -14.3*               -15.70       
   1   13  G                -10.6*               -19.1*

Electrode       Va(V)      Jn(A/um)   Jp(A/um)   Jc(A/um)   Jt(A/um)
====================================================================
gate           1.500e+00 -0.000e+00 -0.000e+00 -0.000e+00  0.000e+00
source         0.000e+00 -1.720e-16  2.262e-33 -1.720e-16 -1.720e-16
drain          0.000e+00  1.790e-16  2.450e-33  1.790e-16  1.790e-16
substrate      0.000e+00 -5.797e-36  2.040e-22  2.040e-22  2.040e-22
Total                                                      7.049e-18

Time for bias point:   0.50 sec. 
Total time:            1.80 sec. 
  
ATLAS> method newton trap autonr
ATLAS> log outf=tsi007_Lg100_IdVd_Vg15.log
ATLAS> solve name=drain vdrain=0.0 cname=drain

Obtaining static solution:


Warning: In line #  31
Need to define BOTH Current Value and  Electrode no. for Compliance limit.    2

prev           psi     n      p     psi     n      p  
direct          x      x      x     rhs    rhs    rhs 
   i    j  m  -5.00* -5.00* -5.00* -26.0* -17.3* -17.3*
-------------------------------------------------------
   1       N  -12.5* -12.5* -14.0* -29.7* -16.23 -17.9*

Electrode       Va(V)      Jn(A/um)   Jp(A/um)   Jc(A/um)   Jt(A/um)
====================================================================
gate           1.500e+00 -0.000e+00 -0.000e+00 -0.000e+00  0.000e+00
source         0.000e+00 -3.180e-17 -1.437e-23 -3.180e-17 -3.180e-17
drain          0.000e+00 -3.347e-17 -1.437e-23 -3.347e-17 -3.347e-17
substrate      0.000e+00  5.576e-23  4.097e-19  4.097e-19  4.097e-19
Total                                                     -6.486e-17

Time for bias point:   0.50 sec. 
Total time:            2.30 sec. 
  
ATLAS> solve name=drain vstep=0.1 vfinal=1.8 cname=drain

Obtaining static solution:

 V(  drain  ) = 0.1         


Warning: In line #  32
Need to define BOTH Current Value and  Electrode no. for Compliance limit.    2

prev           psi     n      p     psi     n      p  
direct          x      x      x     rhs    rhs    rhs 
   i    j  m  -5.00* -5.00* -5.00* -26.0* -17.3* -17.3*
-------------------------------------------------------
   1       N   0.730 -0.410 -1.254 -26.2* -1.426 -7.206
   2       N   0.202 -0.652 -1.751 -29.0* -2.643 -8.286
   3       A  -1.015 -2.434 -3.023 -29.7* -3.688 -9.181
   4       A  -2.060 -3.541 -4.080 -29.7* -4.733 -10.23
   5       A  -3.105 -4.629 -5.12* -29.8* -5.777 -11.28
   6       A  -4.149 -5.68* -6.17* -29.7* -6.822 -12.32
   7       N  -5.23* -6.76* -7.25* -29.7* -15.06 -17.8*

Electrode       Va(V)      Jn(A/um)   Jp(A/um)   Jc(A/um)   Jt(A/um)
====================================================================
gate           1.500e+00 -0.000e+00 -0.000e+00 -0.000e+00  0.000e+00
source         0.000e+00 -1.136e-05 -8.635e-22 -1.136e-05 -1.136e-05
drain          1.000e-01  1.136e-05  1.835e-22  1.136e-05  1.136e-05
substrate      0.000e+00  5.576e-23  4.070e-19  4.071e-19  4.071e-19
Total                                                      1.687e-15

Time for bias point:   2.00 sec. 
Total time:            4.30 sec. 
  

Obtaining static solution:

 V(  drain  ) = 0.2         


proj           psi     n      p     psi     n      p  
direct          x      x      x     rhs    rhs    rhs 
   i    j  m  -5.00* -5.00* -5.00* -26.0* -17.3* -17.3*
-------------------------------------------------------
   1       N  -1.004 -2.006 -3.053 -29.7* -8.526 -10.85
   2       N  -3.484 -4.180 -5.75* -29.8* -13.65 -16.91

Electrode       Va(V)      Jn(A/um)   Jp(A/um)   Jc(A/um)   Jt(A/um)
====================================================================
gate           1.500e+00 -0.000e+00 -0.000e+00 -0.000e+00  0.000e+00
source         0.000e+00 -2.155e-05 -2.265e-21 -2.155e-05 -2.155e-05
drain          2.000e-01  2.155e-05  2.100e-22  2.155e-05  2.155e-05
substrate      0.000e+00  5.576e-23  4.735e-19  4.736e-19  4.736e-19
Total                                                     -8.197e-18

Time for bias point:   0.50 sec. 
Total time:            4.80 sec. 
  

Obtaining static solution:

 V(  drain  ) = 0.3         


proj           psi     n      p     psi     n      p  
direct          x      x      x     rhs    rhs    rhs 
   i    j  m  -5.00* -5.00* -5.00* -26.0* -17.3* -17.3*
-------------------------------------------------------
   1       N  -0.924 -1.896 -3.042 -29.7* -8.342 -10.85
   2       N  -3.300 -4.106 -5.58* -29.8* -13.11 -16.60

Electrode       Va(V)      Jn(A/um)   Jp(A/um)   Jc(A/um)   Jt(A/um)
====================================================================
gate           1.500e+00 -0.000e+00 -0.000e+00 -0.000e+00  0.000e+00
source         0.000e+00 -3.049e-05 -4.703e-21 -3.049e-05 -3.049e-05
drain          3.000e-01  3.049e-05  2.149e-22  3.049e-05  3.049e-05
substrate      0.000e+00  5.576e-23  4.276e-19  4.277e-19  4.277e-19
Total                                                      5.486e-17

Time for bias point:   1.50 sec. 
Total time:            6.30 sec. 
  

Obtaining static solution:

 V(  drain  ) = 0.4         


proj           psi     n      p     psi     n      p  
direct          x      x      x     rhs    rhs    rhs 
   i    j  m  -5.00* -5.00* -5.00* -26.0* -17.3* -17.3*
-------------------------------------------------------
   1       N  -0.832 -1.770 -3.031 -29.7* -8.127 -10.85
   2       N  -3.093 -3.935 -5.39* -29.8* -12.54 -16.26

Electrode       Va(V)      Jn(A/um)   Jp(A/um)   Jc(A/um)   Jt(A/um)
====================================================================
gate           1.500e+00 -0.000e+00 -0.000e+00 -0.000e+00  0.000e+00
source         0.000e+00 -3.815e-05 -8.683e-21 -3.815e-05 -3.815e-05
drain          4.000e-01  3.815e-05  2.178e-22  3.815e-05  3.815e-05
substrate      0.000e+00  5.576e-23  4.753e-19  4.753e-19  4.753e-19
Total                                                      6.445e-18

Time for bias point:   0.50 sec. 
Total time:            6.80 sec. 
  

Obtaining static solution:

 V(  drain  ) = 0.5         


proj           psi     n      p     psi     n      p  
direct          x      x      x     rhs    rhs    rhs 
   i    j  m  -5.00* -5.00* -5.00* -26.0* -17.3* -17.3*
-------------------------------------------------------
   1       N  -0.731 -1.630 -2.964 -29.7* -7.879 -10.84
   2       N  -2.862 -3.591 -5.18* -29.7* -11.91 -15.87

Electrode       Va(V)      Jn(A/um)   Jp(A/um)   Jc(A/um)   Jt(A/um)
====================================================================
gate           1.500e+00 -0.000e+00 -0.000e+00 -0.000e+00  0.000e+00
source         0.000e+00 -4.452e-05 -1.432e-20 -4.452e-05 -4.452e-05
drain          5.000e-01  4.452e-05  2.201e-22  4.452e-05  4.452e-05
substrate      0.000e+00  5.576e-23  4.651e-19  4.651e-19  4.651e-19
Total                                                     -9.004e-17

Time for bias point:   1.00 sec. 
Total time:            7.80 sec. 
  

Obtaining static solution:

 V(  drain  ) = 0.6         


proj           psi     n      p     psi     n      p  
direct          x      x      x     rhs    rhs    rhs 
   i    j  m  -5.00* -5.00* -5.00* -26.0* -17.3* -17.3*
-------------------------------------------------------
   1       N  -0.623 -1.482 -2.855 -29.8* -7.597 -10.84
   2       N  -2.606 -3.210 -4.958 -29.8* -11.21 -15.45

Electrode       Va(V)      Jn(A/um)   Jp(A/um)   Jc(A/um)   Jt(A/um)
====================================================================
gate           1.500e+00 -0.000e+00 -0.000e+00 -0.000e+00  0.000e+00
source         0.000e+00 -4.960e-05 -2.117e-20 -4.960e-05 -4.960e-05
drain          6.000e-01  4.960e-05  2.220e-22  4.960e-05  4.960e-05
substrate      0.000e+00  5.576e-23  4.583e-19  4.584e-19  4.584e-19
Total                                                     -4.309e-17

Time for bias point:   0.50 sec. 
Total time:            8.80 sec. 
  

Obtaining static solution:

 V(  drain  ) = 0.7         


proj           psi     n      p     psi     n      p  
direct          x      x      x     rhs    rhs    rhs 
   i    j  m  -5.00* -5.00* -5.00* -26.0* -17.3* -17.3*
-------------------------------------------------------
   1       N  -0.510 -1.339 -2.753 -29.7* -7.277 -10.84
   2       N  -2.331 -2.788 -4.730 -29.8* -10.44 -15.02

Electrode       Va(V)      Jn(A/um)   Jp(A/um)   Jc(A/um)   Jt(A/um)
====================================================================
gate           1.500e+00 -0.000e+00 -0.000e+00 -0.000e+00  0.000e+00
source         0.000e+00 -5.344e-05 -2.818e-20 -5.344e-05 -5.344e-05
drain          7.000e-01  5.344e-05  2.235e-22  5.344e-05  5.344e-05
substrate      0.000e+00  5.576e-23  3.277e-19  3.277e-19  3.277e-19
Total                                                     -1.350e-16

Time for bias point:   0.50 sec. 
Total time:            9.30 sec. 
  

Obtaining static solution:

 V(  drain  ) = 0.8         


proj           psi     n      p     psi     n      p  
direct          x      x      x     rhs    rhs    rhs 
   i    j  m  -5.00* -5.00* -5.00* -26.0* -17.3* -17.3*
-------------------------------------------------------
   1       N  -0.398 -1.265 -2.670 -29.8* -6.935 -10.77
   2       N  -2.060 -2.331 -4.527 -29.7* -9.657 -14.62
   3       A  -5.20* -5.16* -7.57* -29.7* -12.23 -17.3*
   4       N  -7.93* -7.90* -10.5* -29.7* -16.24 -17.8*

Electrode       Va(V)      Jn(A/um)   Jp(A/um)   Jc(A/um)   Jt(A/um)
====================================================================
gate           1.500e+00 -0.000e+00 -0.000e+00 -0.000e+00  0.000e+00
source         0.000e+00 -5.616e-05 -3.393e-20 -5.616e-05 -5.616e-05
drain          8.000e-01  5.616e-05  2.245e-22  5.616e-05  5.616e-05
substrate      0.000e+00  5.576e-23  4.358e-19  4.358e-19  4.358e-19
Total                                                      3.920e-17

Time for bias point:   2.00 sec. 
Total time:           11.30 sec. 
  

Obtaining static solution:

 V(  drain  ) = 0.9         


proj           psi     n      p     psi     n      p  