# --- TSi=0.07um, Lg=1.00um, VDS=0.1V (Transfer) ---
go atlas
************ W A R N I N G ************
 You do not seem to be running a
 supported release of Linux. (CentOS)
***************************************
************ W A R N I N G ************
 You do not seem to be running a
 supported release of Linux. (CentOS)
***************************************
executing /home/silvaco/lib/atlas/5.22.1.R/x86_64-linux/atlas.exe


                                   A T L A S

            Version:  atlas 5.22.1.R (Fri Dec 18 15:27:29 PST 2015)

                           Copyright (c) 1984 - 2015
                        Silvaco Inc. All rights reserved

    We acknowledge the contribution of the following collaborative partners:

                              Stanford University



               ======================================================

                  ATLAS                           : enabled

                  S-PISCES                        : enabled

                  BLAZE                           : enabled

                  GIGA                            : enabled

                  LUMINOUS                        : enabled

                  LED                             : enabled

                  TFT                             : enabled

                  ORGANIC DISPLAY                 : enabled

                  ORGANIC SOLAR                   : enabled

                  MIXEDMODE                       : enabled

                  LASER                           : enabled

                  VCSEL                           : enabled

                  FERRO                           : enabled

                  QUANTUM                         : enabled

                  NOISE                           : enabled

                  REM                             : not licensed

                  MAGNETIC                        : enabled

                  DEVICE3D                        : enabled

                  THERMAL3D                       : enabled

                  GIGA3D                          : enabled

                  MIXEDMODE3D                     : enabled

                  TFT3D                           : enabled

                  QUANTUM3D                       : enabled

                  LUMINOUS3D                      : enabled

                  REM3D                           : not licensed

                  MAGNETIC3D                      : enabled

                  LED3D                           : enabled

                  LASER3D                         : enabled

                  MIXEDMODE XL                    : enabled

                  S-PISCES BUNDLE                 : not licensed

                  BLAZE BUNDLE                    : not licensed

                  TFT BUNDLE                      : not licensed

                  ORGANIC BUNDLE                  : not licensed

                  DEVICE3D BUNDLE                 : not licensed

                  TFT3D BUNDLE                    : not licensed

               ======================================================

                           Mon Oct 20 13:32:39 2025

                             Executing on host: khu
                   Current SFLM Server: 163.180.144.59:3162/



ATLAS> mesh space.mult=1.0
	####################################################
	######                                        ######
	######           Running on 1 CPU             ######
	######           12 CPUs available            ######
	######                                        ######
	####################################################
ATLAS> x.mesh loc=0.00 spacing=0.10
ATLAS> x.mesh loc=1.15 spacing=0.01
ATLAS> x.mesh loc=1.50 spacing=0.02
ATLAS> x.mesh loc=1.85 spacing=0.01
ATLAS> x.mesh loc=3.00 spacing=0.10
ATLAS> y.mesh loc=-0.017 spacing=0.02
ATLAS> y.mesh loc=0.000  spacing=0.01
ATLAS> y.mesh loc=0.070  spacing=0.02
ATLAS> y.mesh loc=0.470  spacing=0.02
ATLAS> y.mesh loc=1.800  spacing=0.10
ATLAS> 
ATLAS> region num=1 y.max=0                    material=SiO2
ATLAS> region num=2 y.min=0     y.max=0.07     material=Silicon
ATLAS> region num=3 y.min=0.07  y.max=0.47     material=SiO2
ATLAS> region num=4 y.min=0.47  y.max=1.80     material=Silicon
ATLAS> 
ATLAS> electrode name=gate      x.min=1.00 x.max=2.00 y.min=-0.017 y.max=-0.017

Electrode #1
Name: gate                
 Number of boundary nodes: 69
 Dimensions in microns: 
       min         max
 x  1.001e+00   1.999e+00 
 y -1.700e-02  -1.700e-02 

ATLAS> electrode name=source    x.min=0.0  x.max=0.5  y.min=0.0    y.max=0.0

Electrode #2
Name: source              
 Number of boundary nodes: 7
 Dimensions in microns: 
       min         max
 x  0.000e+00   4.933e-01 
 y  0.000e+00   0.000e+00 

Warning:  Electrode shortened in X-direction.


ATLAS> electrode name=drain     x.min=2.5  x.max=3.0  y.min=0.0    y.max=0.0

Electrode #3
Name: drain               
 Number of boundary nodes: 7
 Dimensions in microns: 
       min         max
 x  2.507e+00   3.000e+00 
 y  0.000e+00   0.000e+00 

Warning:  Electrode shortened in X-direction.


ATLAS> electrode name=substrate x.min=0.0  x.max=3.0  y.min=1.80   y.max=1.80

Electrode #4
Name: substrate           
 Number of boundary nodes: 107
 Dimensions in microns: 
       min         max
 x  0.000e+00   3.000e+00 
 y  1.800e+00   1.800e+00 

ATLAS> 
ATLAS> doping uniform p.type conc=1e17 region=2

Mesh
 Type:               non-cylindrical
 Total grid points:  5885
 Total triangles  :  11448
 Obtuse triangles :  0  (0 %)
ATLAS> doping uniform p.type conc=1e17 region=4
ATLAS> doping gaussian n.type conc=1e20 characteristic=0.02 region=2 x.left=0.0  x.right=1.0 y.top=0.0 ratio.lateral=0.01
ATLAS> doping gaussian n.type conc=1e20 characteristic=0.02 region=2 x.left=2.0 x.right=3.0  y.top=0.0 ratio.lateral=0.01
ATLAS> 
ATLAS> contact name=gate workfunction=4.15
ATLAS> models cvt srh auger bgn fermi print
ATLAS> method gummel autonr


CONSTANTS:
 Boltzmann's constant  = 1.38066e-23 J/K
 Elementary charge     = 1.60219e-19 C
 Permitivity in vacuum = 8.85419e-14 F/cm
 Temperature           = 300 K
 Thermal voltage       = 0.025852 V

REGIONAL MATERIAL PARAMETERS:
 Region       :        1         2         3         4         5         6         7         8   
 Material     :       SiO2   Silicon      SiO2   Silicon Conductor Conductor Conductor Conductor 
 Type         :    insulator semicond. insulator semicond.   metal     metal     metal     metal  

 Average Composition Fraction 
 X-composition:         0         0         0         0         0         0         0         0 
 Y-composition:         0         0         0         0         0         0         0         0 

 Band Parameters
 Epsilon      :       3.9      11.8       3.9      11.8                                         
 Eg (eV)      :                1.08                1.08                                         
 Chi (eV)     :                4.17                4.17                                         
 Nc (per cc)  :             2.8e+19             2.8e+19                                         
 Nv (per cc)  :            1.04e+19            1.04e+19                                         
 ni (per cc)  :            1.45e+10            1.45e+10                                         

 Bandgap narrowing parameters 
 bgn.e (eV)   :               0.009               0.009                                         
 bgn.n (/cc)  :               1e+17               1e+17                                         
 bgn.c        :                 0.5                 0.5                                         
 ubgn.b       :             3.1e+12             3.1e+12                                         
 ubgn.c       :             3.9e-05             3.9e-05                                         
 bgn.shnk.me  :               0.321               0.321                                         
 bgn.shnk.mh  :               0.346               0.346                                         
 bgn.shnk.eps :                11.7                11.7                                         
 bgn.shnk.ge  :                  12                  12                                         
 bgn.shnk.gh  :                   4                   4                                         

 Effective Richardson Constants
 An*          :                 110                 110                                         
 Ap*          :                  30                  30                                         

 Incomplete Ionization Parameters
 Gc           :                   2                   2                                         
 Gv           :                   4                   4                                         
 Ed (eV)      :               0.044               0.044                                         
 Ea (eV)      :               0.045               0.045                                         

 Recombination Parameters
 taun0        :               1e-07               1e-07                                         
 taup0        :               1e-07               1e-07                                         
 etrap        :                   0                   0                                         
 nsrhn        :               5e+16               5e+16                                         
 nsrhp        :               5e+16               5e+16                                         
 ksrhtn       :              0.0025              0.0025                                         
 ksrhtp       :              0.0025              0.0025                                         
 ksrhcn       :               3e-13               3e-13                                         
 ksrhcp       :            1.18e-12            1.18e-12                                         
 ksrhgn       :                1.77                1.77                                         
 ksrhgp       :                0.57                0.57                                         
 nsrhn        :               5e+16               5e+16                                         
 nsrhp        :               5e+16               5e+16                                         
 augn         :             2.8e-31             2.8e-31                                         
 augp         :             9.9e-32             9.9e-32                                         
 augkn        :                   0                   0                                         
 augkp        :                   0                   0                                         
 kaugcn       :            1.83e-31            1.83e-31                                         
 kaugcp       :            2.78e-31            2.78e-31                                         
 kaugdn       :                1.18                1.18                                         
 kaugdp       :                0.72                0.72                                         
 aug.cnl      :             2.2e-31             2.2e-31                                         
 aug.cpl      :             9.2e-32             9.2e-32                                         
 aug.chi      :            1.66e-30            1.66e-30                                         
 hns.ae       :             6.7e-32             6.7e-32                                         
 hns.ah       :             7.2e-32             7.2e-32                                         
 hns.be       :            2.45e-31            2.45e-31                                         
 hns.bh       :             4.5e-33             4.5e-33                                         
 hns.ce       :            -2.2e-32            -2.2e-32                                         
 hns.ch       :            2.63e-32            2.63e-32                                         
 hns.he       :                3.47                3.47                                         
 hns.hh       :                8.26                8.26                                         
 hns.n0e      :               1e+18               1e+18                                         
 hns.p0e      :               1e+18               1e+18                                         
 copt         :                   0                   0                                         

 Band-to-band tunneling Parameters
 mass.tunnel  :                0.25                0.25                                         
 me.tunnel    :               0.322               0.322                                         
 mh.tunnel    :               0.549               0.549                                         

 Thermal Velocities
 vn (cm/s)    :            1.08e+07            1.08e+07                                         
 vp (cm/s)    :             1.3e+07             1.3e+07                                         

 Saturation Velocities
 vsatn (cm/s) :            1.03e+07            1.03e+07                                         
 vsatp (cm/s) :            1.03e+07            1.03e+07                                         

REGIONAL MODEL FLAGS:
 Region:          1    2    3    4    5    6    7    8 
 SRH                   T         T                      
 consrh                F         F                      
 klasrh                F         F                      
 Auger                 T         T                      
 klaaug                F         F                      
 picaug                F         F                      
 hnsaug                F         F                      
 auggen                F         F                      
 optr                  F         F                      
 optr.gb               F         F                      
 bgn(std/kla)          T         T                      
 ubgn                  F         F                      
 bgn.alamo             F         F                      
 bgn.bennett           F         F                      
 bgn.schenk            F         F                      
 incomplete            F         F                      
 bbt                   F         F                      
 bbtauto               F         F                      
 bbthurkx              F         F                      
 bbtkane               F         F                      
 bbtschenk             F         F                      
 bbtnonlocal           F         F                      
 tat(local)            F         F                      
 tatnonlocal           F         F                      
 tat(coulombic)        F         F                      
 impact                F         F                      
 Boltzmann             F         F                      
 Fermi-Dirac           T         T                      

Gain and Rsp scaling
  Gain scale factor  :         1         1         1         1 
  Rsp scale factor   :         1         1         1         1 


REGIONAL MOBILITY MODEL SUMMARY:

  Region #2:

    Model for Electrons:

      Concentration Dependent Mobility
      @ Temperature =     300 Kelvin 
        Using CVT low field mobility model.
          cs    = 3.43e+20
          cr    = 9.68e+16
          alpha = 0.68
          beta  = 2
          gamma = 2.5
          pc    = 0
          mu0   = 52.2
          mu1   = 43.4
          mumax = 1417

      Parallel Field Dependent Mobility
        Using parallel field model.
          Using built-in Silicon model for Vsat.
          alpha = 2.4e+07
          theta = 0.8
          tnom = 600
          beta = 2

      Perpendicular Field Dependent Mobility
        Using CVT model.
          B = 4.75e+07
          C = 174000
          D = 0.333333
          E = 1
          tau = 0.125
          delta = 5.82e+14
          k = 2

    Model for Holes:

      Concentration Dependent Mobility
      @ Temperature =     300 Kelvin 
        Using CVT low field mobility model.
          cs    = 6.1e+20
          cr    = 2.23e+17
          alpha = 0.71
          beta  = 2
          gamma = 2.2
          pc    = 9.23e+16
          mu0   = 44.9
          mu1   = 29
          mumax = 470.5

      Parallel Field Dependent Mobility
        Using parallel field model.
          Using built-in Silicon model for Vsat.
          alpha = 2.4e+07
          theta = 0.8
          tnom = 600
          beta = 1

      Perpendicular Field Dependent Mobility
        Using CVT model.
          B = 9.925e+06
          C = 884200
          D = 0.333333
          E = 1
          tau = 0.0317
          delta = 2.0546e+14
          k = 2

  Region #4:

    Model for Electrons:

      Concentration Dependent Mobility
      @ Temperature =     300 Kelvin 
        Using CVT low field mobility model.
          cs    = 3.43e+20
          cr    = 9.68e+16
          alpha = 0.68
          beta  = 2
          gamma = 2.5
          pc    = 0
          mu0   = 52.2
          mu1   = 43.4
          mumax = 1417

      Parallel Field Dependent Mobility
        Using parallel field model.
          Using built-in Silicon model for Vsat.
          alpha = 2.4e+07
          theta = 0.8
          tnom = 600
          beta = 2

      Perpendicular Field Dependent Mobility
        Using CVT model.
          B = 4.75e+07
          C = 174000
          D = 0.333333
          E = 1
          tau = 0.125
          delta = 5.82e+14
          k = 2

    Model for Holes:

      Concentration Dependent Mobility
      @ Temperature =     300 Kelvin 
        Using CVT low field mobility model.
          cs    = 6.1e+20
          cr    = 2.23e+17
          alpha = 0.71
          beta  = 2
          gamma = 2.2
          pc    = 9.23e+16
          mu0   = 44.9
          mu1   = 29
          mumax = 470.5

      Parallel Field Dependent Mobility
        Using parallel field model.
          Using built-in Silicon model for Vsat.
          alpha = 2.4e+07
          theta = 0.8
          tnom = 600
          beta = 1

      Perpendicular Field Dependent Mobility
        Using CVT model.
          B = 9.925e+06
          C = 884200
          D = 0.333333
          E = 1
          tau = 0.0317
          delta = 2.0546e+14
          k = 2


Contacts:
Name         Num  Work fn    Resist.    Capacit.   Induct.
                   (eV)      (Ohms)     (Farads)   (Henries)
gate          1     4.150   0.000E+00  0.000E+00  0.000E+00
source        2     0.000   0.000E+00  0.000E+00  0.000E+00
drain         3     0.000   0.000E+00  0.000E+00  0.000E+00
substrate     4     0.000   0.000E+00  0.000E+00  0.000E+00
  
ATLAS> solve init

Starting module:   SPISCES                        


Obtaining static solution:


init           psi    psi 
direct          x     rhs 
   i    j  m  -5.00* -26.0*
---------------------------
   1    1  G   0.000 -15.24
   1    2  G  -0.301 -15.38
   1    3  G  -0.477 -15.41
   1    4  G  -0.602 -15.49
   1    5  G  -0.699 -15.59
   1    6  G  -0.778 -15.73
   1    7  G  -0.845 -15.92
   1    8  G  -0.903 -16.29
   1    9  G  -0.954 -16.61
   1   10  G  -1.281 -17.41
   1   11  G  -6.18* -22.25
  
ATLAS> solve name=drain vdrain=0.1

Obtaining static solution:

 V(  drain  ) = 0.1         


prev           psi     n      p     psi     n      p  
direct          x      x      x     rhs    rhs    rhs 
   i    j  m  -5.00* -5.00* -5.00* -26.0* -17.3* -17.3*
-------------------------------------------------------
   1    1  G  -0.007               -15.97              
   1    2  G  -4.440               -18.62              
   1    3  G  -9.74*               -23.91              
   1    4  G         -0.088               -1.141       
   1    5  G                -0.306               -17.9*
   2    1  G   0.035               -13.99              
   2    2  G  -0.228               -13.91              
   2    3  G  -1.012               -14.86              
   2    4  G  -2.574               -16.44              
   2    5  G  -5.69*               -19.56              
   2    6  G         -0.027               -1.754       
   2    7  G                -0.499               -10.97
   3    1  G   0.061               -14.17              
   3    2  G  -0.538               -14.45              
   3    3  G  -1.116               -15.40              
   3    4  G  -2.318               -16.88              
   3    5  G  -4.709               -19.20              
   3    6  G  -8.88*               -23.84              
   3    7  G         -0.024               -1.900       
   3    8  G                -0.334               -11.14
   4    1  G  -0.615               -14.80              
   4    2  G  -0.934               -14.36              
   4    3  G  -0.256               -14.93              
   4    4  G  -0.774               -15.65              
   4    5  G  -1.876               -16.81              
   4    6  G  -4.114               -19.05              
   4    7  G  -8.59*               -23.53              
   4    8  G         -0.262               -3.010       
   4    9  G                -1.488               -10.71
   5    1  G  -0.542               -15.57              
   5    2  G  -1.515               -16.44              
   5    3  G  -3.390               -18.33              
   5    4  G  -7.15*               -22.09              
   5    5  G         -2.876               -5.301       
   5    6  G                -3.756               -12.79
   6    1  G  -2.860               -17.80              
   6    2  G  -6.09*               -21.03              
   6    3  G         -7.37*               -9.777       
   6    4  G                -5.73*               -17.3*

Electrode       Va(V)      Jn(A/um)   Jp(A/um)   Jc(A/um)   Jt(A/um)
====================================================================
gate           0.000e+00 -0.000e+00 -0.000e+00 -0.000e+00  0.000e+00
source         0.000e+00 -1.331e-13 -3.145e-20 -1.331e-13 -1.331e-13
drain          1.000e-01  6.684e-13  1.551e-20  6.684e-13  6.684e-13
substrate      0.000e+00  5.576e-23  2.040e-22  2.597e-22  2.597e-22
Total                                                      5.352e-13

Time for bias point:   2.50 sec. 
Total time:            3.80 sec. 
  
ATLAS> log outf=tsi007_Lg100_IdVg_Vd01.log
ATLAS> solve name=gate vgate=-0.2
  
 Warning: Projection cannot be done with
 current bias step.  Using previous solution
 for initial guess.
  

Obtaining static solution:

 V(   gate  ) = -0.2        


prev           psi     n      p     psi     n      p  
direct          x      x      x     rhs    rhs    rhs 
   i    j  m  -5.00* -5.00* -5.00* -26.0* -17.3* -17.3*
-------------------------------------------------------
   1    1  G  -0.153               -16.75              
   1    2  G  -0.710               -17.01              
   1    3  G  -1.683               -17.53              
   1    4  G  -2.057               -18.14              
   1    5  G  -2.954               -19.14              
   1    6  G  -4.818               -21.01              
   1    7  G  -8.56*               -24.74              
   1    8  G         -6.16*               -13.12       
   1    9  G                -0.913               -15.54
   2    1  G  -2.550               -18.66              
   2    2  G  -3.895               -20.05              
   2    3  G  -6.63*               -22.77              
   2    4  G         -7.86*               -16.40       
   2    5  G                -2.454               -10.39
   3    1  G  -4.050               -20.20              
   3    2  G  -6.92*               -23.09              
   3    3  G         -9.38*               -16.41       
   3    4  G                -4.167               -13.42
   4    1  G  -5.76*               -21.91              
   4    2  G         -11.1*               -16.33       
   4    3  G                -5.85*               -16.84

Electrode       Va(V)      Jn(A/um)   Jp(A/um)   Jc(A/um)   Jt(A/um)
====================================================================
gate          -2.000e-01 -0.000e+00 -0.000e+00 -0.000e+00  0.000e+00
source         0.000e+00 -1.014e-15 -3.777e-20 -1.014e-15 -1.014e-15
drain          1.000e-01  1.060e-15  1.552e-20  1.060e-15  1.060e-15
substrate      0.000e+00  5.576e-23  1.938e-21  1.993e-21  1.993e-21
Total                                                      4.593e-17

Time for bias point:   1.00 sec. 
Total time:            4.80 sec. 
  
ATLAS> solve name=gate vstep=0.05 vfinal=1.6

Obtaining static solution:

 V(   gate  ) = -0.15       


prev           psi     n      p     psi     n      p  
direct          x      x      x     rhs    rhs    rhs 
   i    j  m  -5.00* -5.00* -5.00* -26.0* -17.3* -17.3*
-------------------------------------------------------
   1    1  G  -0.889               -17.35              
   1    2  G  -2.611               -19.24              
   1    3  G  -4.370               -20.94              
   1    4  G  -7.82*               -24.35              
   1    5  G         -6.30*               -15.22       
   1    6  G                -1.261               -17.8*
   2    1  G  -2.848               -19.12              
   2    2  G  -4.554               -20.78              
   2    3  G  -7.97*               -24.18              
   2    4  G         -7.64*               -16.30       
   2    5  G                -2.554               -11.16
   3    1  G  -4.163               -20.42              
   3    2  G  -7.17*               -23.40              
   3    3  G         -8.95*               -16.42       
   3    4  G                -4.186               -13.77
   4    1  G  -5.79*               -22.05              
   4    2  G         -10.6*               -16.66       
   4    3  G                -5.78*               -17.03

Electrode       Va(V)      Jn(A/um)   Jp(A/um)   Jc(A/um)   Jt(A/um)
====================================================================
gate          -1.500e-01 -0.000e+00 -0.000e+00 -0.000e+00  0.000e+00
source         0.000e+00 -3.091e-15 -3.490e-20 -3.091e-15 -3.091e-15
drain          1.000e-01  3.084e-15  1.555e-20  3.084e-15  3.084e-15
substrate      0.000e+00  5.576e-23  1.938e-21  1.993e-21  1.993e-21
Total                                                     -6.675e-18

Time for bias point:   1.50 sec. 
Total time:            6.30 sec. 
  

Obtaining static solution:

 V(   gate  ) = -0.1        


proj           psi     n      p     psi     n      p  
direct          x      x      x     rhs    rhs    rhs 
   i    j  m  -5.00* -5.00* -5.00* -26.0* -17.3* -17.3*
-------------------------------------------------------
   1    1  G  -2.225               -18.90              
   1    2  G  -3.625               -20.31              
   1    3  G  -6.37*               -22.95              
   1    4  G         -4.504               -8.682       
   1    5  G                -3.253               -10.31
   2    1  G  -4.937               -21.28              
   2    2  G  -8.76*               -25.07              
   2    3  G         -9.11*               -15.97       
   2    4  G                -4.858               -15.48
   3    1  G  -6.49*               -22.84              
   3    2  G         -10.7*               -16.27       
   3    3  G                -6.40*               -18.6*

Electrode       Va(V)      Jn(A/um)   Jp(A/um)   Jc(A/um)   Jt(A/um)
====================================================================
gate          -1.000e-01 -0.000e+00 -0.000e+00 -0.000e+00  0.000e+00
source         0.000e+00 -9.614e-15 -3.220e-20 -9.614e-15 -9.614e-15
drain          1.000e-01  9.605e-15  1.557e-20  9.605e-15  9.605e-15
substrate      0.000e+00  5.576e-23  1.938e-21  1.993e-21  1.993e-21
Total                                                     -9.283e-18

Time for bias point:   0.50 sec. 
Total time:            6.80 sec. 
  

Obtaining static solution:

 V(   gate  ) = -0.05       


proj           psi     n      p     psi     n      p  
direct          x      x      x     rhs    rhs    rhs 
   i    j  m  -5.00* -5.00* -5.00* -26.0* -17.3* -17.3*
-------------------------------------------------------
   1    1  G  -2.121               -18.84              
   1    2  G  -3.433               -20.16              
   1    3  G  -6.00*               -22.63              
   1    4  G         -4.187               -8.679       
   1    5  G                -1.760               -10.91
   2    1  G  -3.451               -19.92              
   2    2  G  -5.85*               -22.28              
   2    3  G         -7.04*               -15.92       
   2    4  G                -4.056               -12.78
   3    1  G  -5.74*               -22.21              
   3    2  G         -9.33*               -16.44       
   3    3  G                -5.96*               -17.4*

Electrode       Va(V)      Jn(A/um)   Jp(A/um)   Jc(A/um)   Jt(A/um)
====================================================================
gate          -5.000e-02 -0.000e+00 -0.000e+00 -0.000e+00  0.000e+00
source         0.000e+00 -3.327e-14 -3.042e-20 -3.327e-14 -3.327e-14
drain          1.000e-01  3.329e-14  1.557e-20  3.329e-14  3.329e-14
substrate      0.000e+00  5.576e-23  1.938e-21  1.993e-21  1.993e-21
Total                                                      2.119e-17

Time for bias point:   1.50 sec. 
Total time:            8.30 sec. 
  

Obtaining static solution:

 V(   gate  ) = -1.14806e-17


proj           psi     n      p     psi     n      p  
direct          x      x      x     rhs    rhs    rhs 
   i    j  m  -5.00* -5.00* -5.00* -26.0* -17.3* -17.3*
-------------------------------------------------------
   1    1  G  -2.017               -18.77              
   1    2  G  -3.251               -19.97              
   1    3  G  -5.66*               -22.31              
   1    4  G         -3.887               -8.681       
   1    5  G                -1.217               -10.68
   2    1  G  -3.033               -19.66              
   2    2  G  -5.14*               -21.73              