# -------------- TOX = 0.017 um --------------
go atlas
************ W A R N I N G ************
 You do not seem to be running a
 supported release of Linux. (CentOS)
***************************************
************ W A R N I N G ************
 You do not seem to be running a
 supported release of Linux. (CentOS)
***************************************
executing /home/silvaco/lib/atlas/5.22.1.R/x86_64-linux/atlas.exe


                                   A T L A S

            Version:  atlas 5.22.1.R (Fri Dec 18 15:27:29 PST 2015)

                           Copyright (c) 1984 - 2015
                        Silvaco Inc. All rights reserved

    We acknowledge the contribution of the following collaborative partners:

                              Stanford University



               ======================================================

                  ATLAS                           : enabled

                  S-PISCES                        : enabled

                  BLAZE                           : enabled

                  GIGA                            : enabled

                  LUMINOUS                        : enabled

                  LED                             : enabled

                  TFT                             : enabled

                  ORGANIC DISPLAY                 : enabled

                  ORGANIC SOLAR                   : enabled

                  MIXEDMODE                       : enabled

                  LASER                           : enabled

                  VCSEL                           : enabled

                  FERRO                           : enabled

                  QUANTUM                         : enabled

                  NOISE                           : enabled

                  REM                             : not licensed

                  MAGNETIC                        : enabled

                  DEVICE3D                        : enabled

                  THERMAL3D                       : enabled

                  GIGA3D                          : enabled

                  MIXEDMODE3D                     : enabled

                  TFT3D                           : enabled

                  QUANTUM3D                       : enabled

                  LUMINOUS3D                      : enabled

                  REM3D                           : not licensed

                  MAGNETIC3D                      : enabled

                  LED3D                           : enabled

                  LASER3D                         : enabled

                  MIXEDMODE XL                    : enabled

                  S-PISCES BUNDLE                 : not licensed

                  BLAZE BUNDLE                    : not licensed

                  TFT BUNDLE                      : not licensed

                  ORGANIC BUNDLE                  : not licensed

                  DEVICE3D BUNDLE                 : not licensed

                  TFT3D BUNDLE                    : not licensed

               ======================================================

                           Mon Oct 20 14:13:37 2025

                             Executing on host: khu
                   Current SFLM Server: 163.180.144.59:3162/



ATLAS> mesh space.mult=1.0
	####################################################
	######                                        ######
	######           Running on 1 CPU             ######
	######           12 CPUs available            ######
	######                                        ######
	####################################################
ATLAS> x.mesh loc=0.00 spacing=0.1
ATLAS> x.mesh loc=1.15 spacing=0.01
ATLAS> x.mesh loc=1.50 spacing=0.02
ATLAS> x.mesh loc=1.85 spacing=0.01
ATLAS> x.mesh loc=3.00 spacing=0.1
ATLAS> y.mesh loc=-0.017 spacing=0.02
ATLAS> y.mesh loc=0.000  spacing=0.01
ATLAS> y.mesh loc=0.200  spacing=0.02
ATLAS> y.mesh loc=0.600  spacing=0.02
ATLAS> y.mesh loc=1.800  spacing=0.1
ATLAS> 
ATLAS> region num=1 y.max=0     material=SiO2
ATLAS> region num=2 y.min=0 y.max=0.2 material=Silicon
ATLAS> region num=3 y.min=0.2 y.max=0.6 material=SiO2
ATLAS> region num=4 y.min=0.6 y.max=1.8 material=Silicon
ATLAS> 
ATLAS> electrode name=gate      x.min=1.0 x.max=2.0 y.min=-0.017 y.max=-0.017

Electrode #1
Name: gate                
 Number of boundary nodes: 69
 Dimensions in microns: 
       min         max
 x  1.001e+00   1.999e+00 
 y -1.700e-02  -1.700e-02 

ATLAS> electrode name=source    x.min=0.0 x.max=0.5 y.min=0.0    y.max=0.0

Electrode #2
Name: source              
 Number of boundary nodes: 7
 Dimensions in microns: 
       min         max
 x  0.000e+00   4.933e-01 
 y  0.000e+00   0.000e+00 

Warning:  Electrode shortened in X-direction.


ATLAS> electrode name=drain     x.min=2.5 x.max=3.0 y.min=0.0    y.max=0.0

Electrode #3
Name: drain               
 Number of boundary nodes: 7
 Dimensions in microns: 
       min         max
 x  2.507e+00   3.000e+00 
 y  0.000e+00   0.000e+00 

Warning:  Electrode shortened in X-direction.


ATLAS> electrode name=substrate x.min=0.0 x.max=3.0 y.min=1.8    y.max=1.8

Electrode #4
Name: substrate           
 Number of boundary nodes: 107
 Dimensions in microns: 
       min         max
 x  0.000e+00   3.000e+00 
 y  1.800e+00   1.800e+00 

ATLAS> 
ATLAS> doping uniform p.type conc=1e17 region=2

Mesh
 Type:               non-cylindrical
 Total grid points:  6527
 Total triangles  :  12720
 Obtuse triangles :  0  (0 %)
ATLAS> doping uniform p.type conc=1e17 region=4
ATLAS> doping gaussian n.type conc=1e20 characteristic=0.2 region=2 x.left=0.0 x.right=1.0 y.top=0.0 ratio.lateral=0.1
ATLAS> doping gaussian n.type conc=1e20 characteristic=0.2 region=2 x.left=2.0 x.right=3.0 y.top=0.0 ratio.lateral=0.1
ATLAS> 
ATLAS> contact name=gate workfunction=4.15
ATLAS> models cvt srh auger bgn fermi impact print
ATLAS> 
ATLAS> method gummel autonr


CONSTANTS:
 Boltzmann's constant  = 1.38066e-23 J/K
 Elementary charge     = 1.60219e-19 C
 Permitivity in vacuum = 8.85419e-14 F/cm
 Temperature           = 300 K
 Thermal voltage       = 0.025852 V

REGIONAL MATERIAL PARAMETERS:
 Region       :        1         2         3         4         5         6         7         8   
 Material     :       SiO2   Silicon      SiO2   Silicon Conductor Conductor Conductor Conductor 
 Type         :    insulator semicond. insulator semicond.   metal     metal     metal     metal  

 Average Composition Fraction 
 X-composition:         0         0         0         0         0         0         0         0 
 Y-composition:         0         0         0         0         0         0         0         0 

 Band Parameters
 Epsilon      :       3.9      11.8       3.9      11.8                                         
 Eg (eV)      :                1.08                1.08                                         
 Chi (eV)     :                4.17                4.17                                         
 Nc (per cc)  :             2.8e+19             2.8e+19                                         
 Nv (per cc)  :            1.04e+19            1.04e+19                                         
 ni (per cc)  :            1.45e+10            1.45e+10                                         

 Bandgap narrowing parameters 
 bgn.e (eV)   :               0.009               0.009                                         
 bgn.n (/cc)  :               1e+17               1e+17                                         
 bgn.c        :                 0.5                 0.5                                         
 ubgn.b       :             3.1e+12             3.1e+12                                         
 ubgn.c       :             3.9e-05             3.9e-05                                         
 bgn.shnk.me  :               0.321               0.321                                         
 bgn.shnk.mh  :               0.346               0.346                                         
 bgn.shnk.eps :                11.7                11.7                                         
 bgn.shnk.ge  :                  12                  12                                         
 bgn.shnk.gh  :                   4                   4                                         

 Effective Richardson Constants
 An*          :                 110                 110                                         
 Ap*          :                  30                  30                                         

 Incomplete Ionization Parameters
 Gc           :                   2                   2                                         
 Gv           :                   4                   4                                         
 Ed (eV)      :               0.044               0.044                                         
 Ea (eV)      :               0.045               0.045                                         

 Recombination Parameters
 taun0        :               1e-07               1e-07                                         
 taup0        :               1e-07               1e-07                                         
 etrap        :                   0                   0                                         
 nsrhn        :               5e+16               5e+16                                         
 nsrhp        :               5e+16               5e+16                                         
 ksrhtn       :              0.0025              0.0025                                         
 ksrhtp       :              0.0025              0.0025                                         
 ksrhcn       :               3e-13               3e-13                                         
 ksrhcp       :            1.18e-12            1.18e-12                                         
 ksrhgn       :                1.77                1.77                                         
 ksrhgp       :                0.57                0.57                                         
 nsrhn        :               5e+16               5e+16                                         
 nsrhp        :               5e+16               5e+16                                         
 augn         :             2.8e-31             2.8e-31                                         
 augp         :             9.9e-32             9.9e-32                                         
 augkn        :                   0                   0                                         
 augkp        :                   0                   0                                         
 kaugcn       :            1.83e-31            1.83e-31                                         
 kaugcp       :            2.78e-31            2.78e-31                                         
 kaugdn       :                1.18                1.18                                         
 kaugdp       :                0.72                0.72                                         
 aug.cnl      :             2.2e-31             2.2e-31                                         
 aug.cpl      :             9.2e-32             9.2e-32                                         
 aug.chi      :            1.66e-30            1.66e-30                                         
 hns.ae       :             6.7e-32             6.7e-32                                         
 hns.ah       :             7.2e-32             7.2e-32                                         
 hns.be       :            2.45e-31            2.45e-31                                         
 hns.bh       :             4.5e-33             4.5e-33                                         
 hns.ce       :            -2.2e-32            -2.2e-32                                         
 hns.ch       :            2.63e-32            2.63e-32                                         
 hns.he       :                3.47                3.47                                         
 hns.hh       :                8.26                8.26                                         
 hns.n0e      :               1e+18               1e+18                                         
 hns.p0e      :               1e+18               1e+18                                         
 copt         :                   0                   0                                         

 Impact Ionization Model Parameters (Selberherr model)
 an1          :            7.03e+05            7.03e+05                                         
 an2          :            7.03e+05            7.03e+05                                         
 ap1          :            6.71e+05            6.71e+05                                         
 ap2          :            1.58e+06            1.58e+06                                         
 bn1          :            1.23e+06            1.23e+06                                         
 bn2          :            1.23e+06            1.23e+06                                         
 bp1          :            1.69e+06            1.69e+06                                         
 bp2          :            2.04e+06            2.04e+06                                         
 betan        :                   1                   1                                         
 betap        :                   1                   1                                         
 egran        :               4e+05               4e+05                                         

 Band-to-band tunneling Parameters
 mass.tunnel  :                0.25                0.25                                         
 me.tunnel    :               0.322               0.322                                         
 mh.tunnel    :               0.549               0.549                                         

 Thermal Velocities
 vn (cm/s)    :            1.08e+07            1.08e+07                                         
 vp (cm/s)    :             1.3e+07             1.3e+07                                         

 Saturation Velocities
 vsatn (cm/s) :            1.03e+07            1.03e+07                                         
 vsatp (cm/s) :            1.03e+07            1.03e+07                                         

REGIONAL MODEL FLAGS:
 Region:          1    2    3    4    5    6    7    8 
 SRH                   T         T                      
 consrh                F         F                      
 klasrh                F         F                      
 Auger                 T         T                      
 klaaug                F         F                      
 picaug                F         F                      
 hnsaug                F         F                      
 auggen                F         F                      
 optr                  F         F                      
 optr.gb               F         F                      
 bgn(std/kla)          T         T                      
 ubgn                  F         F                      
 bgn.alamo             F         F                      
 bgn.bennett           F         F                      
 bgn.schenk            F         F                      
 incomplete            F         F                      
 bbt                   F         F                      
 bbtauto               F         F                      
 bbthurkx              F         F                      
 bbtkane               F         F                      
 bbtschenk             F         F                      
 bbtnonlocal           F         F                      
 tat(local)            F         F                      
 tatnonlocal           F         F                      
 tat(coulombic)        F         F                      
 impact                T         T                      
 Boltzmann             F         F                      
 Fermi-Dirac           T         T                      

Gain and Rsp scaling
  Gain scale factor  :         1         1         1         1 
  Rsp scale factor   :         1         1         1         1 


REGIONAL MOBILITY MODEL SUMMARY:

  Region #2:

    Model for Electrons:

      Concentration Dependent Mobility
      @ Temperature =     300 Kelvin 
        Using CVT low field mobility model.
          cs    = 3.43e+20
          cr    = 9.68e+16
          alpha = 0.68
          beta  = 2
          gamma = 2.5
          pc    = 0
          mu0   = 52.2
          mu1   = 43.4
          mumax = 1417

      Parallel Field Dependent Mobility
        Using parallel field model.
          Using built-in Silicon model for Vsat.
          alpha = 2.4e+07
          theta = 0.8
          tnom = 600
          beta = 2

      Perpendicular Field Dependent Mobility
        Using CVT model.
          B = 4.75e+07
          C = 174000
          D = 0.333333
          E = 1
          tau = 0.125
          delta = 5.82e+14
          k = 2

    Model for Holes:

      Concentration Dependent Mobility
      @ Temperature =     300 Kelvin 
        Using CVT low field mobility model.
          cs    = 6.1e+20
          cr    = 2.23e+17
          alpha = 0.71
          beta  = 2
          gamma = 2.2
          pc    = 9.23e+16
          mu0   = 44.9
          mu1   = 29
          mumax = 470.5

      Parallel Field Dependent Mobility
        Using parallel field model.
          Using built-in Silicon model for Vsat.
          alpha = 2.4e+07
          theta = 0.8
          tnom = 600
          beta = 1

      Perpendicular Field Dependent Mobility
        Using CVT model.
          B = 9.925e+06
          C = 884200
          D = 0.333333
          E = 1
          tau = 0.0317
          delta = 2.0546e+14
          k = 2

  Region #4:

    Model for Electrons:

      Concentration Dependent Mobility
      @ Temperature =     300 Kelvin 
        Using CVT low field mobility model.
          cs    = 3.43e+20
          cr    = 9.68e+16
          alpha = 0.68
          beta  = 2
          gamma = 2.5
          pc    = 0
          mu0   = 52.2
          mu1   = 43.4
          mumax = 1417

      Parallel Field Dependent Mobility
        Using parallel field model.
          Using built-in Silicon model for Vsat.
          alpha = 2.4e+07
          theta = 0.8
          tnom = 600
          beta = 2

      Perpendicular Field Dependent Mobility
        Using CVT model.
          B = 4.75e+07
          C = 174000
          D = 0.333333
          E = 1
          tau = 0.125
          delta = 5.82e+14
          k = 2

    Model for Holes:

      Concentration Dependent Mobility
      @ Temperature =     300 Kelvin 
        Using CVT low field mobility model.
          cs    = 6.1e+20
          cr    = 2.23e+17
          alpha = 0.71
          beta  = 2
          gamma = 2.2
          pc    = 9.23e+16
          mu0   = 44.9
          mu1   = 29
          mumax = 470.5

      Parallel Field Dependent Mobility
        Using parallel field model.
          Using built-in Silicon model for Vsat.
          alpha = 2.4e+07
          theta = 0.8
          tnom = 600
          beta = 1

      Perpendicular Field Dependent Mobility
        Using CVT model.
          B = 9.925e+06
          C = 884200
          D = 0.333333
          E = 1
          tau = 0.0317
          delta = 2.0546e+14
          k = 2


Contacts:
Name         Num  Work fn    Resist.    Capacit.   Induct.
                   (eV)      (Ohms)     (Farads)   (Henries)
gate          1     4.150   0.000E+00  0.000E+00  0.000E+00
source        2     0.000   0.000E+00  0.000E+00  0.000E+00
drain         3     0.000   0.000E+00  0.000E+00  0.000E+00
substrate     4     0.000   0.000E+00  0.000E+00  0.000E+00
  
ATLAS> solve init

Starting module:   SPISCES                        


Obtaining static solution:


init           psi    psi 
direct          x     rhs 
   i    j  m  -5.00* -26.0*
---------------------------
   1    1  G   0.000 -15.80
   1    2  G  -0.301 -15.85
   1    3  G  -0.477 -15.91
   1    4  G  -0.602 -15.97
   1    5  G  -0.699 -16.04
   1    6  G  -0.778 -16.13
   1    7  G  -0.845 -16.24
   1    8  G  -0.903 -16.39
   1    9  G  -0.954 -16.61
   1   10  G  -1.256 -17.71
   1   11  G  -11.2* -27.7*
  
ATLAS> solve name=drain vdrain=0.1

Obtaining static solution:

 V(  drain  ) = 0.1         


prev           psi     n      p     psi     n      p  
direct          x      x      x     rhs    rhs    rhs 
   i    j  m  -5.00* -5.00* -5.00* -26.0* -17.3* -17.3*
-------------------------------------------------------
   1    1  G  -0.007               -15.99              
   1    2  G  -4.634               -18.77              
   1    3  G  -10.2*               -24.34              
   1    4  G         -0.020               -1.086       
   1    5  G                 8.495               -7.621
   2    1  G   0.093               -8.715              
   2    2  G  -0.717               -8.715              
   2    3  G  -0.518               -8.715              
   2    4  G  -0.564               -8.715              
   2    5  G  -0.345               -8.715              
   2    6  G  -0.084               -8.715              
   2    7  G   0.588               -8.715              
   2    8  G  -0.642               -8.715              
   2    9  G  -0.558               -8.716              
   2   10  G  -0.542               -8.716              
   2   11  G  -0.784               -8.716              
   2   12  G  -0.818               -8.716              
   2   13  G  -0.759               -8.716              
   2   14  G  -0.857               -8.716              
   2   15  G  -0.913               -8.716              
   2   16  G  -0.984               -8.716              
   2   17  G  -1.045               -8.716              
   2   18  G  -1.030               -8.716              
   2   19  G  -1.069               -8.717              
   2   20  G  -1.119               -8.717              
   2   21  G  -1.151               -8.717              
   2   22  G  -1.193               -8.717              
   2   23  G  -1.220               -8.717              
   2   24  G  -1.257               -8.717              
   2   25  G  -1.290               -8.717              
   2   26  G  -1.271               -8.717              
   2   27  G  -1.304               -8.718              
   2   28  G  -1.325               -8.718              
   2   29  G  -1.345               -8.718              
   2   30  G  -1.372               -8.718              
   2   31  G  -1.390               -8.718              
   2   32  G  -1.408               -8.718              
   2   33  G  -1.431               -8.718              
   2   34  G  -1.454               -8.718              
   2   35  G  -1.469               -8.718              
   2   36  G  -1.463               -8.719              
   2   37  G  -1.478               -8.719              
   2   38  G  -1.492               -8.719              
   2   39  G  -1.506               -8.719              
   2   40  G  -1.525               -8.719              
   2   41  G  -1.538               -8.719              
   2   42  G  -1.550               -8.719              
   2   43  G  -1.562               -8.719              
   2   44  G  -1.579               -8.720              
   2   45  G  -1.590               -8.720              
   2   46  G  -1.606               -8.720              
   2   47  G  -1.617               -8.720              
   2   48  G  -1.613               -8.720              
   2   49  G  -1.623               -8.720              
   2   50  G  -1.633               -8.720              
   2   51  G  -1.643               -8.720              
   2   52  G  -1.653               -8.720              
   2   53  G  -1.667               -8.721              
   2   54  G  -1.676               -8.721              
   2   55  G  -1.685               -8.721              
   2   56  G  -1.694               -8.721              
   2   57  G  -1.706               -8.721              
   2   58  G  -1.715               -8.721              
   2   59  G  -1.723               -8.721              
   2   60  G  -1.735               -8.721              
   2   61  G  -1.743               -8.722              
   2   62  G  -1.751               -8.722              
   2   63  G  -1.762               -8.722              
   2   64  G  -1.755               -8.722              
   2   65  G  -1.763               -8.722              
   2   66  G  -1.770               -8.722              
   2   67  G  -1.781               -8.722              
   2   68  G  -1.788               -8.722              
   2   69  G  -1.795               -8.723              
   2   70  G  -1.802               -8.723              
   2   71  G  -1.808               -8.723              
   2   72  G  -1.815               -8.723              
   2   73  G  -1.825               -8.723              
   2   74  G  -1.831               -8.723              
   2   75  G  -1.837               -8.723              
   2   76  G  -1.844               -8.724              
   2   77  G  -1.852               -8.724              
   2   78  G  -1.858               -8.724              
   2   79  G  -1.864               -8.724              
   2   80  G  -1.873               -8.724              
   2   81  G  -1.879               -8.724              
   2   82  G  -1.874               -8.724              
   2   83  G  -1.882               -8.724              
   2   84  G  -1.888               -8.725              
   2   85  G  -1.893               -8.725              
   2   86  G  -1.899               -8.725              
   2   87  G  -1.904               -8.725              
   2   88  G  -1.910               -8.725              
   2   89  G  -1.915               -8.725              
   2   90  G  -1.920               -8.725              
   2   91  G  -1.928               -8.726              
   2   92  G  -1.933               -8.726              
   2   93  G  -1.938               -8.726              
   2   94  G  -1.943               -8.726              
   2   95  G  -1.948               -8.726              
   2   96  G  -1.953               -8.726              
   2   97  G  -1.959               -8.726              
   2   98  G  -1.964               -8.726              
   2   99  G  -1.969               -8.727              
   2  100  G  -1.973               -8.727              
   2  101  G  -1.980               -8.727              
  
 
Warning: Convergence problem.  Taking smaller bias
step(s).  Bias step reduced 1 times.
 

Obtaining static solution:

 V(  drain  ) = 0.05        


prev           psi     n      p     psi     n      p  
direct          x      x      x     rhs    rhs    rhs 
   i    j  m  -5.00* -5.00* -5.00* -26.0* -17.3* -17.3*
-------------------------------------------------------
   1    1  G  -0.015               -16.29              
   1    2  G  -5.23*               -19.37              
   1    3  G         -0.008               -1.340       
   1    4  G                 2.655               -13.17
   2    1  G  -0.320               -13.94              
   2    2  G   0.394               -13.66              
   2    3  G  -1.464               -14.45              
   2    4  G  -1.497               -15.63              
   2    5  G  -1.551               -16.55              
   2    6  G  -1.702               -17.06              
   2    7  G  -2.064               -17.67              
   2    8  G  -2.896               -18.62              
   2    9  G  -4.626               -20.37              
   2   10  G  -8.10*               -23.84              
   2   11  G          0.658               -1.973       
   2   12  G                 1.716               -5.595
   3    1  G  -0.091               -14.34              
   3    2  G  -1.467               -15.00              
   3    3  G  -1.547               -15.78              
   3    4  G  -1.789               -17.07              
   3    5  G  -2.422               -18.49              
   3    6  G  -3.799               -19.96              
   3    7  G  -6.59*               -22.74              
   3    8  G         -0.549               -3.129       
   3    9  G                -15.0*               -6.778
   4    1  G  -1.445               -15.53              
   4    2  G  -2.021               -16.29              
   4    3  G  -2.830               -18.02              
   4    4  G  -4.516               -20.28              
   4    5  G  -7.90*               -23.67              
   4    6  G         -2.054               -4.570       
   4    7  G                -15.0*               -6.801
   5    1  G  -1.456               -17.04              
   5    2  G  -2.031               -17.65              
   5    3  G  -2.841               -18.58              
   5    4  G  -4.527               -20.28              
   5    5  G  -7.91*               -23.67              
   5    6  G         -3.982               -7.641       
   5    7  G                -15.0*               -6.824
   6    1  G  -1.467               -17.50              
   6    2  G  -2.042               -17.65              
   6    3  G  -2.851               -18.58              
   6    4  G  -4.538               -20.28              
   6    5  G  -7.92*               -23.67              
   6    6  G         -4.121               -13.27       
   6    7  G                -10.5*               -6.848
   7    1  G  -1.477               -17.50              
   7    2  G  -2.052               -17.65              
   7    3  G  -2.862               -18.58              
   7    4  G  -4.548               -20.28              
   7    5  G  -7.94*               -23.67              
   7    6  G         -4.259               -13.42       
   7    7  G                -10.3*               -6.872
   8    1  G  -1.487               -17.50              
   8    2  G  -2.062               -17.65              
   8    3  G  -2.872               -18.58              
   8    4  G  -4.559               -20.28              