# ---------- TSi = 0.05 um ----------
go atlas
************ W A R N I N G ************
 You do not seem to be running a
 supported release of Linux. (CentOS)
***************************************
************ W A R N I N G ************
 You do not seem to be running a
 supported release of Linux. (CentOS)
***************************************
executing /home/silvaco/lib/atlas/5.22.1.R/x86_64-linux/atlas.exe


                                   A T L A S

            Version:  atlas 5.22.1.R (Fri Dec 18 15:27:29 PST 2015)

                           Copyright (c) 1984 - 2015
                        Silvaco Inc. All rights reserved

    We acknowledge the contribution of the following collaborative partners:

                              Stanford University



               ======================================================

                  ATLAS                           : enabled

                  S-PISCES                        : enabled

                  BLAZE                           : enabled

                  GIGA                            : enabled

                  LUMINOUS                        : enabled

                  LED                             : enabled

                  TFT                             : enabled

                  ORGANIC DISPLAY                 : enabled

                  ORGANIC SOLAR                   : enabled

                  MIXEDMODE                       : enabled

                  LASER                           : enabled

                  VCSEL                           : enabled

                  FERRO                           : enabled

                  QUANTUM                         : enabled

                  NOISE                           : enabled

                  REM                             : not licensed

                  MAGNETIC                        : enabled

                  DEVICE3D                        : enabled

                  THERMAL3D                       : enabled

                  GIGA3D                          : enabled

                  MIXEDMODE3D                     : enabled

                  TFT3D                           : enabled

                  QUANTUM3D                       : enabled

                  LUMINOUS3D                      : enabled

                  REM3D                           : not licensed

                  MAGNETIC3D                      : enabled

                  LED3D                           : enabled

                  LASER3D                         : enabled

                  MIXEDMODE XL                    : enabled

                  S-PISCES BUNDLE                 : not licensed

                  BLAZE BUNDLE                    : not licensed

                  TFT BUNDLE                      : not licensed

                  ORGANIC BUNDLE                  : not licensed

                  DEVICE3D BUNDLE                 : not licensed

                  TFT3D BUNDLE                    : not licensed

               ======================================================

                           Mon Oct 20 13:56:40 2025

                             Executing on host: khu
                   Current SFLM Server: 163.180.144.59:3162/



ATLAS> 
ATLAS> mesh space.mult=1.0
	####################################################
	######                                        ######
	######           Running on 1 CPU             ######
	######           12 CPUs available            ######
	######                                        ######
	####################################################
ATLAS> x.mesh loc=0.00  spacing=0.1
ATLAS> x.mesh loc=1.15 spacing=0.01
ATLAS> x.mesh loc=1.5  spacing=0.02
ATLAS> x.mesh loc=1.85 spacing=0.01
ATLAS> x.mesh loc=3.00 spacing=0.1
ATLAS> y.mesh loc=-0.017 spacing=0.02
ATLAS> y.mesh loc=0.000  spacing=0.01
ATLAS> y.mesh loc=0.050  spacing=0.01
ATLAS> y.mesh loc=0.250  spacing=0.02
ATLAS> y.mesh loc=1.800  spacing=0.1
ATLAS> 
ATLAS> region num=1 y.max=0     material=SiO2
ATLAS> region num=2 y.min=0 y.max=0.05 material=Silicon
ATLAS> region num=3 y.min=0.05 y.max=0.25 material=SiO2
ATLAS> region num=4 y.min=0.25 y.max=1.8 material=Silicon
ATLAS> 
ATLAS> electrode name=gate      x.min=1.0 x.max=2.0 y.min=-0.017 y.max=-0.017

Electrode #1
Name: gate                
 Number of boundary nodes: 69
 Dimensions in microns: 
       min         max
 x  1.001e+00   1.999e+00 
 y -1.700e-02  -1.700e-02 

ATLAS> electrode name=source    x.min=0.0 x.max=0.5 y.min=0.0    y.max=0.0

Electrode #2
Name: source              
 Number of boundary nodes: 7
 Dimensions in microns: 
       min         max
 x  0.000e+00   4.933e-01 
 y  0.000e+00   0.000e+00 

Warning:  Electrode shortened in X-direction.


ATLAS> electrode name=drain     x.min=2.5 x.max=3.0 y.min=0.0    y.max=0.0

Electrode #3
Name: drain               
 Number of boundary nodes: 7
 Dimensions in microns: 
       min         max
 x  2.507e+00   3.000e+00 
 y  0.000e+00   0.000e+00 

Warning:  Electrode shortened in X-direction.


ATLAS> electrode name=substrate x.min=0.0 x.max=3.0 y.min=1.8    y.max=1.8

Electrode #4
Name: substrate           
 Number of boundary nodes: 107
 Dimensions in microns: 
       min         max
 x  0.000e+00   3.000e+00 
 y  1.800e+00   1.800e+00 

ATLAS> 
ATLAS> doping uniform p.type conc=1e17 region=2

Mesh
 Type:               non-cylindrical
 Total grid points:  5671
 Total triangles  :  11024
 Obtuse triangles :  0  (0 %)
ATLAS> doping uniform p.type conc=1e17 region=4
ATLAS> doping gaussian n.type conc=1e20 characteristic=0.2 region=2 x.left=0.0 x.right=1.0 y.top=0.0 ratio.lateral=0.1
ATLAS> doping gaussian n.type conc=1e20 characteristic=0.2 region=2 x.left=2.0 x.right=3.0 y.top=0.0 ratio.lateral=0.1
ATLAS> 
ATLAS> contact name=gate workfunction=4.15
ATLAS> models cvt srh auger bgn fermi impact print
ATLAS> 
ATLAS> method gummel autonr


CONSTANTS:
 Boltzmann's constant  = 1.38066e-23 J/K
 Elementary charge     = 1.60219e-19 C
 Permitivity in vacuum = 8.85419e-14 F/cm
 Temperature           = 300 K
 Thermal voltage       = 0.025852 V

REGIONAL MATERIAL PARAMETERS:
 Region       :        1         2         3         4         5         6         7         8   
 Material     :       SiO2   Silicon      SiO2   Silicon Conductor Conductor Conductor Conductor 
 Type         :    insulator semicond. insulator semicond.   metal     metal     metal     metal  

 Average Composition Fraction 
 X-composition:         0         0         0         0         0         0         0         0 
 Y-composition:         0         0         0         0         0         0         0         0 

 Band Parameters
 Epsilon      :       3.9      11.8       3.9      11.8                                         
 Eg (eV)      :                1.08                1.08                                         
 Chi (eV)     :                4.17                4.17                                         
 Nc (per cc)  :             2.8e+19             2.8e+19                                         
 Nv (per cc)  :            1.04e+19            1.04e+19                                         
 ni (per cc)  :            1.45e+10            1.45e+10                                         

 Bandgap narrowing parameters 
 bgn.e (eV)   :               0.009               0.009                                         
 bgn.n (/cc)  :               1e+17               1e+17                                         
 bgn.c        :                 0.5                 0.5                                         
 ubgn.b       :             3.1e+12             3.1e+12                                         
 ubgn.c       :             3.9e-05             3.9e-05                                         
 bgn.shnk.me  :               0.321               0.321                                         
 bgn.shnk.mh  :               0.346               0.346                                         
 bgn.shnk.eps :                11.7                11.7                                         
 bgn.shnk.ge  :                  12                  12                                         
 bgn.shnk.gh  :                   4                   4                                         

 Effective Richardson Constants
 An*          :                 110                 110                                         
 Ap*          :                  30                  30                                         

 Incomplete Ionization Parameters
 Gc           :                   2                   2                                         
 Gv           :                   4                   4                                         
 Ed (eV)      :               0.044               0.044                                         
 Ea (eV)      :               0.045               0.045                                         

 Recombination Parameters
 taun0        :               1e-07               1e-07                                         
 taup0        :               1e-07               1e-07                                         
 etrap        :                   0                   0                                         
 nsrhn        :               5e+16               5e+16                                         
 nsrhp        :               5e+16               5e+16                                         
 ksrhtn       :              0.0025              0.0025                                         
 ksrhtp       :              0.0025              0.0025                                         
 ksrhcn       :               3e-13               3e-13                                         
 ksrhcp       :            1.18e-12            1.18e-12                                         
 ksrhgn       :                1.77                1.77                                         
 ksrhgp       :                0.57                0.57                                         
 nsrhn        :               5e+16               5e+16                                         
 nsrhp        :               5e+16               5e+16                                         
 augn         :             2.8e-31             2.8e-31                                         
 augp         :             9.9e-32             9.9e-32                                         
 augkn        :                   0                   0                                         
 augkp        :                   0                   0                                         
 kaugcn       :            1.83e-31            1.83e-31                                         
 kaugcp       :            2.78e-31            2.78e-31                                         
 kaugdn       :                1.18                1.18                                         
 kaugdp       :                0.72                0.72                                         
 aug.cnl      :             2.2e-31             2.2e-31                                         
 aug.cpl      :             9.2e-32             9.2e-32                                         
 aug.chi      :            1.66e-30            1.66e-30                                         
 hns.ae       :             6.7e-32             6.7e-32                                         
 hns.ah       :             7.2e-32             7.2e-32                                         
 hns.be       :            2.45e-31            2.45e-31                                         
 hns.bh       :             4.5e-33             4.5e-33                                         
 hns.ce       :            -2.2e-32            -2.2e-32                                         
 hns.ch       :            2.63e-32            2.63e-32                                         
 hns.he       :                3.47                3.47                                         
 hns.hh       :                8.26                8.26                                         
 hns.n0e      :               1e+18               1e+18                                         
 hns.p0e      :               1e+18               1e+18                                         
 copt         :                   0                   0                                         

 Impact Ionization Model Parameters (Selberherr model)
 an1          :            7.03e+05            7.03e+05                                         
 an2          :            7.03e+05            7.03e+05                                         
 ap1          :            6.71e+05            6.71e+05                                         
 ap2          :            1.58e+06            1.58e+06                                         
 bn1          :            1.23e+06            1.23e+06                                         
 bn2          :            1.23e+06            1.23e+06                                         
 bp1          :            1.69e+06            1.69e+06                                         
 bp2          :            2.04e+06            2.04e+06                                         
 betan        :                   1                   1                                         
 betap        :                   1                   1                                         
 egran        :               4e+05               4e+05                                         

 Band-to-band tunneling Parameters
 mass.tunnel  :                0.25                0.25                                         
 me.tunnel    :               0.322               0.322                                         
 mh.tunnel    :               0.549               0.549                                         

 Thermal Velocities
 vn (cm/s)    :            1.08e+07            1.08e+07                                         
 vp (cm/s)    :             1.3e+07             1.3e+07                                         

 Saturation Velocities
 vsatn (cm/s) :            1.03e+07            1.03e+07                                         
 vsatp (cm/s) :            1.03e+07            1.03e+07                                         

REGIONAL MODEL FLAGS:
 Region:          1    2    3    4    5    6    7    8 
 SRH                   T         T                      
 consrh                F         F                      
 klasrh                F         F                      
 Auger                 T         T                      
 klaaug                F         F                      
 picaug                F         F                      
 hnsaug                F         F                      
 auggen                F         F                      
 optr                  F         F                      
 optr.gb               F         F                      
 bgn(std/kla)          T         T                      
 ubgn                  F         F                      
 bgn.alamo             F         F                      
 bgn.bennett           F         F                      
 bgn.schenk            F         F                      
 incomplete            F         F                      
 bbt                   F         F                      
 bbtauto               F         F                      
 bbthurkx              F         F                      
 bbtkane               F         F                      
 bbtschenk             F         F                      
 bbtnonlocal           F         F                      
 tat(local)            F         F                      
 tatnonlocal           F         F                      
 tat(coulombic)        F         F                      
 impact                T         T                      
 Boltzmann             F         F                      
 Fermi-Dirac           T         T                      

Gain and Rsp scaling
  Gain scale factor  :         1         1         1         1 
  Rsp scale factor   :         1         1         1         1 


REGIONAL MOBILITY MODEL SUMMARY:

  Region #2:

    Model for Electrons:

      Concentration Dependent Mobility
      @ Temperature =     300 Kelvin 
        Using CVT low field mobility model.
          cs    = 3.43e+20
          cr    = 9.68e+16
          alpha = 0.68
          beta  = 2
          gamma = 2.5
          pc    = 0
          mu0   = 52.2
          mu1   = 43.4
          mumax = 1417

      Parallel Field Dependent Mobility
        Using parallel field model.
          Using built-in Silicon model for Vsat.
          alpha = 2.4e+07
          theta = 0.8
          tnom = 600
          beta = 2

      Perpendicular Field Dependent Mobility
        Using CVT model.
          B = 4.75e+07
          C = 174000
          D = 0.333333
          E = 1
          tau = 0.125
          delta = 5.82e+14
          k = 2

    Model for Holes:

      Concentration Dependent Mobility
      @ Temperature =     300 Kelvin 
        Using CVT low field mobility model.
          cs    = 6.1e+20
          cr    = 2.23e+17
          alpha = 0.71
          beta  = 2
          gamma = 2.2
          pc    = 9.23e+16
          mu0   = 44.9
          mu1   = 29
          mumax = 470.5

      Parallel Field Dependent Mobility
        Using parallel field model.
          Using built-in Silicon model for Vsat.
          alpha = 2.4e+07
          theta = 0.8
          tnom = 600
          beta = 1

      Perpendicular Field Dependent Mobility
        Using CVT model.
          B = 9.925e+06
          C = 884200
          D = 0.333333
          E = 1
          tau = 0.0317
          delta = 2.0546e+14
          k = 2

  Region #4:

    Model for Electrons:

      Concentration Dependent Mobility
      @ Temperature =     300 Kelvin 
        Using CVT low field mobility model.
          cs    = 3.43e+20
          cr    = 9.68e+16
          alpha = 0.68
          beta  = 2
          gamma = 2.5
          pc    = 0
          mu0   = 52.2
          mu1   = 43.4
          mumax = 1417

      Parallel Field Dependent Mobility
        Using parallel field model.
          Using built-in Silicon model for Vsat.
          alpha = 2.4e+07
          theta = 0.8
          tnom = 600
          beta = 2

      Perpendicular Field Dependent Mobility
        Using CVT model.
          B = 4.75e+07
          C = 174000
          D = 0.333333
          E = 1
          tau = 0.125
          delta = 5.82e+14
          k = 2

    Model for Holes:

      Concentration Dependent Mobility
      @ Temperature =     300 Kelvin 
        Using CVT low field mobility model.
          cs    = 6.1e+20
          cr    = 2.23e+17
          alpha = 0.71
          beta  = 2
          gamma = 2.2
          pc    = 9.23e+16
          mu0   = 44.9
          mu1   = 29
          mumax = 470.5

      Parallel Field Dependent Mobility
        Using parallel field model.
          Using built-in Silicon model for Vsat.
          alpha = 2.4e+07
          theta = 0.8
          tnom = 600
          beta = 1

      Perpendicular Field Dependent Mobility
        Using CVT model.
          B = 9.925e+06
          C = 884200
          D = 0.333333
          E = 1
          tau = 0.0317
          delta = 2.0546e+14
          k = 2


Contacts:
Name         Num  Work fn    Resist.    Capacit.   Induct.
                   (eV)      (Ohms)     (Farads)   (Henries)
gate          1     4.150   0.000E+00  0.000E+00  0.000E+00
source        2     0.000   0.000E+00  0.000E+00  0.000E+00
drain         3     0.000   0.000E+00  0.000E+00  0.000E+00
substrate     4     0.000   0.000E+00  0.000E+00  0.000E+00
  
ATLAS> solve init

Starting module:   SPISCES                        


Obtaining static solution:


init           psi    psi 
direct          x     rhs 
   i    j  m  -5.00* -26.0*
---------------------------
   1    1  G   0.000 -15.80
   1    2  G  -0.301 -15.85
   1    3  G  -0.477 -15.91
   1    4  G  -0.602 -15.97
   1    5  G  -0.699 -16.05
   1    6  G  -0.778 -16.14
   1    7  G  -0.845 -16.25
   1    8  G  -0.903 -16.40
   1    9  G  -0.954 -16.82
   1   10  G  -1.727 -17.91
   1   11  G  -7.13* -23.66
  
ATLAS> solve name=gate vgate=3.0

Obtaining static solution:

 V(   gate  ) = 3           


prev           psi     n      p     psi     n      p  
direct          x      x      x     rhs    rhs    rhs 
   i    j  m  -5.00* -5.00* -5.00* -26.0* -17.3* -17.3*
-------------------------------------------------------
   1    1  G  -0.782               -15.57              
   1    2  G  -0.308               -15.20              
   1    3  G  -0.483               -15.60              
   1    4  G  -0.607               -15.38              
   1    5  G  -0.707               -15.43              
   1    6  G  -0.784               -15.71              
   1    7  G  -0.851               -15.75              
   1    8  G  -0.908               -15.79              
   1    9  G  -0.958               -15.84              
   1   10  G  -1.004               -15.89              
   1   11  G  -1.045               -15.95              
   1   12  G  -1.082               -16.02              
   1   13  G  -1.117               -16.10              
   1   14  G  -1.149               -16.21              
   1   15  G  -1.173               -16.34              
   1   16  G  -1.171               -16.53              
   1   17  G  -1.266               -16.88              
   1   18  G  -15.2*               -29.1*              
   1   19  G         -14.2*               -15.21       
   1   20  G                -10.8*               -19.2*

Electrode       Va(V)      Jn(A/um)   Jp(A/um)   Jc(A/um)   Jt(A/um)
====================================================================
gate           3.000e+00 -0.000e+00 -0.000e+00 -0.000e+00  0.000e+00
source         0.000e+00 -7.127e-16 -3.071e-33 -7.127e-16 -7.127e-16
drain          0.000e+00  3.420e-16 -6.938e-33  3.420e-16  3.420e-16
substrate      0.000e+00 -0.000e+00 -0.000e+00 -0.000e+00  0.000e+00
Total                                                     -3.707e-16

Time for bias point:   1.00 sec. 
Total time:            1.84 sec. 
  
ATLAS> method newton trap autonr
ATLAS> log outf=tsi005.log
ATLAS> solve name=drain vdrain=0.0 cname=drain

Obtaining static solution:


Warning: In line #  31
Need to define BOTH Current Value and  Electrode no. for Compliance limit.    2

prev           psi     n      p     psi     n      p  
direct          x      x      x     rhs    rhs    rhs 
   i    j  m  -5.00* -5.00* -5.00* -26.0* -17.3* -17.3*
-------------------------------------------------------
   1       N  -13.6* -13.8* -14.2* -30.0* -16.33 -18.0*

Electrode       Va(V)      Jn(A/um)   Jp(A/um)   Jc(A/um)   Jt(A/um)
====================================================================
gate           3.000e+00 -0.000e+00 -0.000e+00 -0.000e+00  0.000e+00
source         0.000e+00  9.921e-18 -1.021e-23  9.921e-18  9.921e-18
drain          0.000e+00 -1.167e-17 -1.021e-23 -1.167e-17 -1.167e-17
substrate      0.000e+00  6.525e-23  3.695e-19  3.696e-19  3.696e-19
Total                                                     -1.380e-18

Time for bias point:   1.00 sec. 
Total time:            2.84 sec. 
  
ATLAS> solve name=drain vdrain=0.1 vstep=0.1 vfinal=3.0 cname=drain

Obtaining static solution:

 V(  drain  ) = 0.1         


Warning: In line #  32
Need to define BOTH Current Value and  Electrode no. for Compliance limit.    2

prev           psi     n      p     psi     n      p  
direct          x      x      x     rhs    rhs    rhs 
   i    j  m  -5.00* -5.00* -5.00* -26.0* -17.3* -17.3*
-------------------------------------------------------
   1       N   2.000 -0.002  1.152 -15.35 -1.505 -3.964
   2       N   2.000  1.570  2.786 -15.35 -2.885 -3.863
   3       N   2.000  2.011  2.551 -15.37 -3.521 -4.421
   4       N   2.000  3.405  5.235 -15.29 -2.263 -4.223
   5       N   2.000  3.724  4.514 -14.84 -2.406 -3.289
   6       N   2.000  4.944  6.607 -14.67 -2.149 -1.435
   7       N   2.000  5.252  6.328 -14.80 -1.879 -1.952
   8       N   2.000  5.308  6.658 -14.48 -1.942 -0.765
   9       N   2.000  6.431  7.528 -13.35  0.748  0.090
  10       N   2.000  6.209  7.504 -13.17  0.425  0.320
  11       N   2.000  7.480  7.094 -13.13  1.807  1.717
  12       N   2.000  6.886  7.278 -12.86  2.913  2.749
  13       N   2.000  8.843  8.731 -11.37  4.536  4.541
  14       N   2.000  9.011  8.923 -10.95  6.704  6.705
  15       N   2.000  8.101  9.979 -11.95  10.02  10.02
  16       A   2.000  11.38  11.38 -7.824  11.50  11.50
  17       N   2.000  11.38  10.70 -8.085  11.56  11.56
  18       N   2.000  11.38  10.37 -8.406  11.51  11.51
  19       N   2.000  11.38  9.843 -8.683  11.03  11.03
  20       N   2.000  11.38  11.14 -9.501  11.46  11.46
  21       N   2.000  11.38  9.124 -10.09  10.93  10.93
  22       N   2.000  11.38  10.49 -10.39  11.48  11.48
  23       N   2.000  9.863  10.07 -10.69  11.14  11.14
  24       N   2.000  9.527  8.767 -11.73  10.99  10.99
  25       A   2.000  11.38  11.02 -8.258  11.95  11.95

Warning: Solution algorithm cannot reduce residual(s).
  
 
Warning: Convergence problem.  Taking smaller bias
step(s).  Bias step reduced 1 times.
 

Obtaining static solution:

 V(  drain  ) = 0.05        


prev           psi     n      p     psi     n      p  
direct          x      x      x     rhs    rhs    rhs 
   i    j  m  -5.00* -5.00* -5.00* -26.0* -17.3* -17.3*
-------------------------------------------------------
   1       N   0.323 -0.883 -1.280 -21.14 -2.393 -7.429
   2       N  -0.775 -1.707 -2.292 -30.0* -5.525 -9.700
   3       A  -3.755 -4.275 -5.77* -29.9* -8.366 -12.27
   4       A  -6.51* -7.19* -7.96* -29.9* -11.17 -15.03
   5       N  -9.32* -10.1* -8.63* -29.9* -16.43 -17.9*

Electrode       Va(V)      Jn(A/um)   Jp(A/um)   Jc(A/um)   Jt(A/um)
====================================================================
gate           3.000e+00 -0.000e+00 -0.000e+00 -0.000e+00  0.000e+00
source         0.000e+00 -1.382e-05 -1.669e-21 -1.382e-05 -1.382e-05
drain          5.000e-02  1.382e-05 -2.896e-22  1.382e-05  1.382e-05
substrate      0.000e+00  6.525e-23  3.619e-19  3.620e-19  3.620e-19
Total                                                      2.224e-17

Time for bias point:   2.00 sec. 
Total time:           14.84 sec. 
  

Obtaining static solution:

 V(  drain  ) = 0.1         


proj           psi     n      p     psi     n      p  
direct          x      x      x     rhs    rhs    rhs 
   i    j  m  -5.00* -5.00* -5.00* -26.0* -17.3* -17.3*
-------------------------------------------------------
   1       N  -2.087 -2.688 -2.969 -29.9* -10.04 -10.87
   2       N  -5.90* -6.21* -6.50* -30.0* -16.31 -18.0*

Electrode       Va(V)      Jn(A/um)   Jp(A/um)   Jc(A/um)   Jt(A/um)
====================================================================
gate           3.000e+00 -0.000e+00 -0.000e+00 -0.000e+00  0.000e+00
source         0.000e+00 -2.737e-05 -6.985e-21 -2.737e-05 -2.737e-05
drain          1.000e-01  2.737e-05 -2.911e-22  2.737e-05  2.737e-05
substrate      0.000e+00  6.525e-23  3.829e-19  3.829e-19  3.829e-19
Total                                                     -5.733e-18

Time for bias point:   0.50 sec. 
Total time:           15.34 sec. 
  

Obtaining static solution:

 V(  drain  ) = 0.2         


proj           psi     n      p     psi     n      p  
direct          x      x      x     rhs    rhs    rhs 
   i    j  m  -5.00* -5.00* -5.00* -26.0* -17.3* -17.3*
-------------------------------------------------------
   1       N  -1.583 -2.221 -2.481 -29.9* -9.014 -9.937
   2       N  -4.864 -5.26* -5.51* -29.9* -15.44 -16.82

Electrode       Va(V)      Jn(A/um)   Jp(A/um)   Jc(A/um)   Jt(A/um)
====================================================================
gate           3.000e+00 -0.000e+00 -0.000e+00 -0.000e+00  0.000e+00
source         0.000e+00 -5.354e-05 -7.759e-20 -5.354e-05 -5.354e-05
drain          2.000e-01  5.354e-05 -3.322e-22  5.354e-05  5.354e-05
substrate      0.000e+00  6.525e-23  3.837e-19  3.837e-19  3.837e-19
Total                                                     -1.606e-17

Time for bias point:   1.50 sec. 
Total time:           16.84 sec. 
  

Obtaining static solution:

 V(  drain  ) = 0.3         


proj           psi     n      p     psi     n      p  
direct          x      x      x     rhs    rhs    rhs 
   i    j  m  -5.00* -5.00* -5.00* -26.0* -17.3* -17.3*
-------------------------------------------------------
   1       N  -1.418 -2.109 -2.344 -29.9* -8.675 -9.707
   2       N  -4.503 -4.956 -5.22* -29.9* -14.65 -16.29

Electrode       Va(V)      Jn(A/um)   Jp(A/um)   Jc(A/um)   Jt(A/um)
====================================================================
gate           3.000e+00 -0.000e+00 -0.000e+00 -0.000e+00  0.000e+00
source         0.000e+00 -7.834e-05 -4.834e-19 -7.834e-05 -7.834e-05
drain          3.000e-01  7.834e-05 -8.169e-22  7.834e-05  7.834e-05
substrate      0.000e+00  6.525e-23  3.469e-19  3.469e-19  3.469e-19
Total                                                     -1.113e-17

Time for bias point:   1.00 sec. 
Total time:           17.84 sec. 
  

Obtaining static solution:

 V(  drain  ) = 0.4         


proj           psi     n      p     psi     n      p  
direct          x      x      x     rhs    rhs    rhs 
   i    j  m  -5.00* -5.00* -5.00* -26.0* -17.3* -17.3*
-------------------------------------------------------
   1       N  -1.362 -2.146 -2.330 -30.0* -8.563 -9.727
   2       N  -4.364 -4.884 -5.18* -30.0* -14.32 -16.26

Electrode       Va(V)      Jn(A/um)   Jp(A/um)   Jc(A/um)   Jt(A/um)
====================================================================
gate           3.000e+00 -0.000e+00 -0.000e+00 -0.000e+00  0.000e+00
source         0.000e+00 -1.016e-04 -2.095e-18 -1.016e-04 -1.016e-04
drain          4.000e-01  1.016e-04 -1.732e-21  1.016e-04  1.016e-04