fig8

go atlas
************ W A R N I N G ************
 You do not seem to be running a
 supported release of Linux. (CentOS)
***************************************
************ W A R N I N G ************
 You do not seem to be running a
 supported release of Linux. (CentOS)
***************************************
executing /home/silvaco/lib/atlas/5.22.1.R/x86_64-linux/atlas.exe


                                   A T L A S

            Version:  atlas 5.22.1.R (Fri Dec 18 15:27:29 PST 2015)

                           Copyright (c) 1984 - 2015
                        Silvaco Inc. All rights reserved

    We acknowledge the contribution of the following collaborative partners:

                              Stanford University



               ======================================================

                  ATLAS                           : enabled

                  S-PISCES                        : enabled

                  BLAZE                           : enabled

                  GIGA                            : enabled

                  LUMINOUS                        : enabled

                  LED                             : enabled

                  TFT                             : enabled

                  ORGANIC DISPLAY                 : enabled

                  ORGANIC SOLAR                   : enabled

                  MIXEDMODE                       : enabled

                  LASER                           : enabled

                  VCSEL                           : enabled

                  FERRO                           : enabled

                  QUANTUM                         : enabled

                  NOISE                           : enabled

                  REM                             : not licensed

                  MAGNETIC                        : enabled

                  DEVICE3D                        : enabled

                  THERMAL3D                       : enabled

                  GIGA3D                          : enabled

                  MIXEDMODE3D                     : enabled

                  TFT3D                           : enabled

                  QUANTUM3D                       : enabled

                  LUMINOUS3D                      : enabled

                  REM3D                           : not licensed

                  MAGNETIC3D                      : enabled

                  LED3D                           : enabled

                  LASER3D                         : enabled

                  MIXEDMODE XL                    : enabled

                  S-PISCES BUNDLE                 : not licensed

                  BLAZE BUNDLE                    : not licensed

                  TFT BUNDLE                      : not licensed

                  ORGANIC BUNDLE                  : not licensed

                  DEVICE3D BUNDLE                 : not licensed

                  TFT3D BUNDLE                    : not licensed

               ======================================================

                           Mon Oct 20 12:32:20 2025

                             Executing on host: khu
                   Current SFLM Server: 163.180.144.59:3162/



ATLAS> 
ATLAS> mesh space.mult=1.0
	####################################################
	######                                        ######
	######           Running on 1 CPU             ######
	######           12 CPUs available            ######
	######                                        ######
	####################################################
ATLAS> 
ATLAS> x.mesh loc=0.00  spacing=0.1
ATLAS> x.mesh loc=1.15 spacing=0.01
ATLAS> x.mesh loc=1.5 spacing=0.02
ATLAS> x.mesh loc=1.85 spacing=0.01
ATLAS> x.mesh loc=3.00  spacing=0.1
ATLAS> 
ATLAS> y.mesh loc=-0.017 spacing=0.02
ATLAS> y.mesh loc=0.000  spacing=0.01
ATLAS> y.mesh loc=0.1 spacing=0.01
ATLAS> y.mesh loc=0.200  spacing=0.02
ATLAS> y.mesh loc=0.600  spacing=0.02
ATLAS> y.mesh loc=1.800  spacing=0.1
ATLAS> 
ATLAS> region num=1 y.max=0 material=SiO2
ATLAS> region num=2 y.min=0 y.max=0.2 material=Silicon
ATLAS> region num=3 y.min=0.2 y.max=0.6 material=SiO2
ATLAS> region num=4 y.min=0.6 y.max=1.8 material=Silicon
ATLAS> 
ATLAS> electrode name=gate      x.min=1.0 x.max=2.0 y.min=-0.017 y.max=-0.017

Electrode #1
Name: gate                
 Number of boundary nodes: 69
 Dimensions in microns: 
       min         max
 x  1.001e+00   1.999e+00 
 y -1.700e-02  -1.700e-02 

ATLAS> electrode name=source    x.min=0.0 x.max=0.5 y.min=0.0    y.max=0.0

Electrode #2
Name: source              
 Number of boundary nodes: 7
 Dimensions in microns: 
       min         max
 x  0.000e+00   4.933e-01 
 y  0.000e+00   0.000e+00 

Warning:  Electrode shortened in X-direction.


ATLAS> electrode name=drain     x.min=2.5 x.max=3.0 y.min=0.0    y.max=0.0

Electrode #3
Name: drain               
 Number of boundary nodes: 7
 Dimensions in microns: 
       min         max
 x  2.507e+00   3.000e+00 
 y  0.000e+00   0.000e+00 

Warning:  Electrode shortened in X-direction.


ATLAS> electrode name=substrate x.min=0.0 x.max=3.0 y.min=1.8    y.max=1.8

Electrode #4
Name: substrate           
 Number of boundary nodes: 107
 Dimensions in microns: 
       min         max
 x  0.000e+00   3.000e+00 
 y  1.800e+00   1.800e+00 

ATLAS> 
ATLAS> doping uniform p.type conc=1e17 region=2

Mesh
 Type:               non-cylindrical
 Total grid points:  6848
 Total triangles  :  13356
 Obtuse triangles :  0  (0 %)
ATLAS> doping uniform p.type conc=1e17 region=4
ATLAS> doping gaussian n.type conc=1e20 characteristic=0.2 region=2 x.left=0.0 x.right=1.0 y.top=0.0 ratio.lateral=0.1
ATLAS> doping gaussian n.type conc=1e20 characteristic=0.2 region=2 x.left=2.0 x.right=3.0 y.top=0.0 ratio.lateral=0.1
ATLAS> 
ATLAS> save outf=soi_p1e17_SDgauss1e20_iv.str

Starting module:   SPISCES                        


MASTER format file written to soi_p1e17_SDgauss1e20_iv.str at Mon Oct 20 12:32:22 2025

ATLAS> tonyplot soi_p1e17_SDgauss1e20_iv.str
ATLAS> contact name=gate workfunction=4.15
ATLAS> 
ATLAS> models cvt srh auger bgn fermi impact print
ATLAS> 
ATLAS> method newton trap


CONSTANTS:
 Boltzmann's constant  = 1.38066e-23 J/K
 Elementary charge     = 1.60219e-19 C
 Permitivity in vacuum = 8.85419e-14 F/cm
 Temperature           = 300 K
 Thermal voltage       = 0.025852 V

REGIONAL MATERIAL PARAMETERS:
 Region       :        1         2         3         4         5         6         7         8   
 Material     :       SiO2   Silicon      SiO2   Silicon Conductor Conductor Conductor Conductor 
 Type         :    insulator semicond. insulator semicond.   metal     metal     metal     metal  

 Average Composition Fraction 
 X-composition:         0         0         0         0         0         0         0         0 
 Y-composition:         0         0         0         0         0         0         0         0 

 Band Parameters
 Epsilon      :       3.9      11.8       3.9      11.8                                         
 Eg (eV)      :                1.08                1.08                                         
 Chi (eV)     :                4.17                4.17                                         
 Nc (per cc)  :             2.8e+19             2.8e+19                                         
 Nv (per cc)  :            1.04e+19            1.04e+19                                         
 ni (per cc)  :            1.45e+10            1.45e+10                                         

 Bandgap narrowing parameters 
 bgn.e (eV)   :               0.009               0.009                                         
 bgn.n (/cc)  :               1e+17               1e+17                                         
 bgn.c        :                 0.5                 0.5                                         
 ubgn.b       :             3.1e+12             3.1e+12                                         
 ubgn.c       :             3.9e-05             3.9e-05                                         
 bgn.shnk.me  :               0.321               0.321                                         
 bgn.shnk.mh  :               0.346               0.346                                         
 bgn.shnk.eps :                11.7                11.7                                         
 bgn.shnk.ge  :                  12                  12                                         
 bgn.shnk.gh  :                   4                   4                                         

 Effective Richardson Constants
 An*          :                 110                 110                                         
 Ap*          :                  30                  30                                         

 Incomplete Ionization Parameters
 Gc           :                   2                   2                                         
 Gv           :                   4                   4                                         
 Ed (eV)      :               0.044               0.044                                         
 Ea (eV)      :               0.045               0.045                                         

 Recombination Parameters
 taun0        :               1e-07               1e-07                                         
 taup0        :               1e-07               1e-07                                         
 etrap        :                   0                   0                                         
 nsrhn        :               5e+16               5e+16                                         
 nsrhp        :               5e+16               5e+16                                         
 ksrhtn       :              0.0025              0.0025                                         
 ksrhtp       :              0.0025              0.0025                                         
 ksrhcn       :               3e-13               3e-13                                         
 ksrhcp       :            1.18e-12            1.18e-12                                         
 ksrhgn       :                1.77                1.77                                         
 ksrhgp       :                0.57                0.57                                         
 nsrhn        :               5e+16               5e+16                                         
 nsrhp        :               5e+16               5e+16                                         
 augn         :             2.8e-31             2.8e-31                                         
 augp         :             9.9e-32             9.9e-32                                         
 augkn        :                   0                   0                                         
 augkp        :                   0                   0                                         
 kaugcn       :            1.83e-31            1.83e-31                                         
 kaugcp       :            2.78e-31            2.78e-31                                         
 kaugdn       :                1.18                1.18                                         
 kaugdp       :                0.72                0.72                                         
 aug.cnl      :             2.2e-31             2.2e-31                                         
 aug.cpl      :             9.2e-32             9.2e-32                                         
 aug.chi      :            1.66e-30            1.66e-30                                         
 hns.ae       :             6.7e-32             6.7e-32                                         
 hns.ah       :             7.2e-32             7.2e-32                                         
 hns.be       :            2.45e-31            2.45e-31                                         
 hns.bh       :             4.5e-33             4.5e-33                                         
 hns.ce       :            -2.2e-32            -2.2e-32                                         
 hns.ch       :            2.63e-32            2.63e-32                                         
 hns.he       :                3.47                3.47                                         
 hns.hh       :                8.26                8.26                                         
 hns.n0e      :               1e+18               1e+18                                         
 hns.p0e      :               1e+18               1e+18                                         
 copt         :                   0                   0                                         

 Impact Ionization Model Parameters (Selberherr model)
 an1          :            7.03e+05            7.03e+05                                         
 an2          :            7.03e+05            7.03e+05                                         
 ap1          :            6.71e+05            6.71e+05                                         
 ap2          :            1.58e+06            1.58e+06                                         
 bn1          :            1.23e+06            1.23e+06                                         
 bn2          :            1.23e+06            1.23e+06                                         
 bp1          :            1.69e+06            1.69e+06                                         
 bp2          :            2.04e+06            2.04e+06                                         
 betan        :                   1                   1                                         
 betap        :                   1                   1                                         
 egran        :               4e+05               4e+05                                         

 Band-to-band tunneling Parameters
 mass.tunnel  :                0.25                0.25                                         
 me.tunnel    :               0.322               0.322                                         
 mh.tunnel    :               0.549               0.549                                         

 Thermal Velocities
 vn (cm/s)    :            1.08e+07            1.08e+07                                         
 vp (cm/s)    :             1.3e+07             1.3e+07                                         

 Saturation Velocities
 vsatn (cm/s) :            1.03e+07            1.03e+07                                         
 vsatp (cm/s) :            1.03e+07            1.03e+07                                         

REGIONAL MODEL FLAGS:
 Region:          1    2    3    4    5    6    7    8 
 SRH                   T         T                      
 consrh                F         F                      
 klasrh                F         F                      
 Auger                 T         T                      
 klaaug                F         F                      
 picaug                F         F                      
 hnsaug                F         F                      
 auggen                F         F                      
 optr                  F         F                      
 optr.gb               F         F                      
 bgn(std/kla)          T         T                      
 ubgn                  F         F                      
 bgn.alamo             F         F                      
 bgn.bennett           F         F                      
 bgn.schenk            F         F                      
 incomplete            F         F                      
 bbt                   F         F                      
 bbtauto               F         F                      
 bbthurkx              F         F                      
 bbtkane               F         F                      
 bbtschenk             F         F                      
 bbtnonlocal           F         F                      
 tat(local)            F         F                      
 tatnonlocal           F         F                      
 tat(coulombic)        F         F                      
 impact                T         T                      
 Boltzmann             F         F                      
 Fermi-Dirac           T         T                      

Gain and Rsp scaling
  Gain scale factor  :         1         1         1         1 
  Rsp scale factor   :         1         1         1         1 


REGIONAL MOBILITY MODEL SUMMARY:

  Region #2:

    Model for Electrons:

      Concentration Dependent Mobility
      @ Temperature =     300 Kelvin 
        Using CVT low field mobility model.
          cs    = 3.43e+20
          cr    = 9.68e+16
          alpha = 0.68
          beta  = 2
          gamma = 2.5
          pc    = 0
          mu0   = 52.2
          mu1   = 43.4
          mumax = 1417

      Parallel Field Dependent Mobility
        Using parallel field model.
          Using built-in Silicon model for Vsat.
          alpha = 2.4e+07
          theta = 0.8
          tnom = 600
          beta = 2

      Perpendicular Field Dependent Mobility
        Using CVT model.
          B = 4.75e+07
          C = 174000
          D = 0.333333
          E = 1
          tau = 0.125
          delta = 5.82e+14
          k = 2

    Model for Holes:

      Concentration Dependent Mobility
      @ Temperature =     300 Kelvin 
        Using CVT low field mobility model.
          cs    = 6.1e+20
          cr    = 2.23e+17
          alpha = 0.71
          beta  = 2
          gamma = 2.2
          pc    = 9.23e+16
          mu0   = 44.9
          mu1   = 29
          mumax = 470.5

      Parallel Field Dependent Mobility
        Using parallel field model.
          Using built-in Silicon model for Vsat.
          alpha = 2.4e+07
          theta = 0.8
          tnom = 600
          beta = 1

      Perpendicular Field Dependent Mobility
        Using CVT model.
          B = 9.925e+06
          C = 884200
          D = 0.333333
          E = 1
          tau = 0.0317
          delta = 2.0546e+14
          k = 2

  Region #4:

    Model for Electrons:

      Concentration Dependent Mobility
      @ Temperature =     300 Kelvin 
        Using CVT low field mobility model.
          cs    = 3.43e+20
          cr    = 9.68e+16
          alpha = 0.68
          beta  = 2
          gamma = 2.5
          pc    = 0
          mu0   = 52.2
          mu1   = 43.4
          mumax = 1417

      Parallel Field Dependent Mobility
        Using parallel field model.
          Using built-in Silicon model for Vsat.
          alpha = 2.4e+07
          theta = 0.8
          tnom = 600
          beta = 2

      Perpendicular Field Dependent Mobility
        Using CVT model.
          B = 4.75e+07
          C = 174000
          D = 0.333333
          E = 1
          tau = 0.125
          delta = 5.82e+14
          k = 2

    Model for Holes:

      Concentration Dependent Mobility
      @ Temperature =     300 Kelvin 
        Using CVT low field mobility model.
          cs    = 6.1e+20
          cr    = 2.23e+17
          alpha = 0.71
          beta  = 2
          gamma = 2.2
          pc    = 9.23e+16
          mu0   = 44.9
          mu1   = 29
          mumax = 470.5

      Parallel Field Dependent Mobility
        Using parallel field model.
          Using built-in Silicon model for Vsat.
          alpha = 2.4e+07
          theta = 0.8
          tnom = 600
          beta = 1

      Perpendicular Field Dependent Mobility
        Using CVT model.
          B = 9.925e+06
          C = 884200
          D = 0.333333
          E = 1
          tau = 0.0317
          delta = 2.0546e+14
          k = 2


Contacts:
Name         Num  Work fn    Resist.    Capacit.   Induct.
                   (eV)      (Ohms)     (Farads)   (Henries)
gate          1     4.150   0.000E+00  0.000E+00  0.000E+00
source        2     0.000   0.000E+00  0.000E+00  0.000E+00
drain         3     0.000   0.000E+00  0.000E+00  0.000E+00
substrate     4     0.000   0.000E+00  0.000E+00  0.000E+00
  
ATLAS> solve init

Obtaining static solution:


init           psi    psi 
direct          x     rhs 
   i    j  m  -5.00* -26.0*
---------------------------
   1    1  G   0.000 -15.80
   1    2  G  -0.301 -15.85
   1    3  G  -0.477 -15.91
   1    4  G  -0.602 -15.97
   1    5  G  -0.699 -16.04
   1    6  G  -0.778 -16.13
   1    7  G  -0.845 -16.24
   1    8  G  -0.903 -16.39
   1    9  G  -0.954 -16.61
   1   10  G  -1.256 -17.71
   1   11  G  -11.2* -27.7*
  
ATLAS> 
ATLAS> log outf=ids_vgs.log master
ATLAS> solve name=drain vdrain=0.1

Obtaining static solution:

 V(  drain  ) = 0.1         


prev           psi     n      p     psi     n      p  
direct          x      x      x     rhs    rhs    rhs 
   i    j  m  -5.00* -5.00* -5.00* -26.0* -17.3* -17.3*
-------------------------------------------------------
   1       N   2.000 -0.042  8.058 -9.494 -1.386  6.772
   2       N   2.000  7.554  7.918 -11.26  0.792  3.825
   3       N   2.000  6.958  7.484 -11.56  0.747  3.318
   4       N   2.000  6.969  7.836 -11.87  1.284  2.671
   5       N   2.000  8.988  8.134 -12.17  3.777  3.725
   6       N   2.000  8.641  9.211 -10.81  4.655  4.643
   7       N   2.000  10.61  10.89 -10.57  9.545  9.545
   8       N   2.000  11.15  10.75 -9.844  10.09  10.09
   9       N   2.000  11.38  11.38 -9.888  10.97  10.97
  10       N   2.000  10.76  10.87 -8.935  11.34  11.34
  11       N   2.000  10.53  10.41 -10.84  11.26  11.26
  12       N   2.000  9.669  8.926 -10.74  10.99  10.99
  13       N   2.000  10.02  9.488 -10.45  11.47  11.47
  14       N   2.000  9.865  9.865 -10.28  11.48  11.48
  15       N   2.000  6.979  9.248 -10.39  10.95  10.95
  16       N   2.000  7.912  7.885 -11.13  10.88  10.88
  17       N   2.000  9.056  8.808 -10.96  11.03  11.03
  18       N   2.000  5.290  5.249 -10.83  11.08  11.08
  19       N   2.000  5.966  5.965 -11.21  10.88  10.88
  20       N   2.000  3.829  3.827 -11.94  10.65  10.65
  21       N   2.000  3.907  4.205 -10.26  10.98  10.98

Warning: Solution algorithm cannot reduce residual(s).
  
 
Warning: Convergence problem.  Taking smaller bias
step(s).  Bias step reduced 1 times.
 

Obtaining static solution:

 V(  drain  ) = 0.05        


prev           psi     n      p     psi     n      p  
direct          x      x      x     rhs    rhs    rhs 
   i    j  m  -5.00* -5.00* -5.00* -26.0* -17.3* -17.3*
-------------------------------------------------------
   1       N   2.000 -0.055  2.371 -14.95 -2.393 -2.736
   2       N   2.000  0.847  4.708 -15.32 -2.694 -3.407
   3       N   2.000  3.264  3.341 -15.54 -3.842 -3.278
   4       N   2.000  6.784  3.450 -13.80 -2.025 -1.354
   5       N   2.000  6.090  3.808 -13.81 -0.925 -0.994
   6       N   2.000  5.742  4.373 -13.45  0.310  0.714
   7       N   2.000  6.516  5.241 -11.75  1.582  1.415
   8       N   2.000  6.537  5.422 -12.08  2.076  2.076
   9       N   2.000  9.071  7.824 -11.18  6.986  6.985
  10       N   2.000  10.24  8.933 -9.660  10.53  10.53
  11       N   2.000  11.38  10.27 -8.648  11.26  11.26
  12       N   2.000  11.38  10.20 -9.244  11.55  11.55
  13       N   2.000  11.38  10.58 -9.545  11.51  11.51
  14       N   2.000  11.38  11.38 -8.897  11.59  11.59
  15       N   2.000  10.68  10.71 -10.15  11.06  11.06
  16       N   2.000  9.970  9.910 -11.00  11.26  11.26
  17       N   2.000  10.42  10.42 -11.56  10.90  10.90
  18       N   2.000  10.40  9.347 -11.90  11.23  11.23
  19       N   2.000  9.433  9.745 -10.97  11.66  11.66
  20       N   2.000  6.577  6.745 -11.12  11.45  11.45
  21       N   2.000  5.373  5.312 -10.91  11.32  11.32
  22       N   2.000  6.092  8.400 -11.21  11.32  11.32
  23       N   2.000  9.340  9.378 -11.51  10.92  10.92
  24       N   2.000  9.319  3.956 -11.22  10.97  10.97

Warning: Solution algorithm cannot reduce residual(s).
  
 
Warning: Convergence problem.  Taking smaller bias
step(s).  Bias step reduced 2 times.
 

Obtaining static solution:

 V(  drain  ) = 0.025       


prev           psi     n      p     psi     n      p  
direct          x      x      x     rhs    rhs    rhs 
   i    j  m  -5.00* -5.00* -5.00* -26.0* -17.3* -17.3*
-------------------------------------------------------
   1       N  -0.005 -0.238 -0.577 -29.3* -3.292 -8.366
   2       N  -1.093 -0.564 -1.422 -29.9* -7.606 -9.876
   3       N  -2.097 -2.896 -2.296 -29.9* -11.56 -11.96
   4       N  -3.366 -4.240 -3.605 -29.9* -14.10 -14.49
   5       N  -5.97* -6.85* -6.21* -29.9* -16.87 -17.9*

Electrode       Va(V)      Jn(A/um)   Jp(A/um)   Jc(A/um)   Jt(A/um)
====================================================================
gate           0.000e+00 -0.000e+00 -0.000e+00 -0.000e+00  0.000e+00
source         0.000e+00 -3.591e-14 -4.654e-22 -3.591e-14 -3.591e-14
drain          2.500e-02  3.589e-14  3.107e-22  3.589e-14  3.589e-14
substrate      0.000e+00  5.011e-23  4.679e-19  4.680e-19  4.680e-19
Total                                                     -2.290e-17

Time for bias point:   2.50 sec. 
Total time:           25.96 sec. 
  

Obtaining static solution:

 V(  drain  ) = 0.05        


proj           psi     n      p     psi     n      p  
direct          x      x      x     rhs    rhs    rhs 
   i    j  m  -5.00* -5.00* -5.00* -26.0* -17.3* -17.3*
-------------------------------------------------------
   1       N  -0.933 -1.801 -1.179 -29.9* -9.225 -9.531
   2       N  -3.095 -4.348 -2.759 -29.9* -13.64 -13.45
   3       N  -5.22* -6.08* -5.47* -29.9* -16.71 -18.0*

Electrode       Va(V)      Jn(A/um)   Jp(A/um)   Jc(A/um)   Jt(A/um)
====================================================================
gate           0.000e+00 -0.000e+00 -0.000e+00 -0.000e+00  0.000e+00
source         0.000e+00 -5.643e-14 -9.052e-22 -5.643e-14 -5.643e-14
drain          5.000e-02  5.641e-14  5.418e-22  5.641e-14  5.641e-14
substrate      0.000e+00  5.011e-23  4.873e-19  4.873e-19  4.873e-19
Total                                                     -2.124e-17

Time for bias point:   2.00 sec. 
Total time:           27.96 sec. 
  

Obtaining static solution:

 V(  drain  ) = 0.1         


proj           psi     n      p     psi     n      p  
direct          x      x      x     rhs    rhs    rhs 
   i    j  m  -5.00* -5.00* -5.00* -26.0* -17.3* -17.3*
-------------------------------------------------------
   1       N  -0.632 -1.489 -0.885 -29.9* -8.268 -8.856
   2       N  -2.105 -3.338 -2.342 -29.9* -11.61 -11.75
   3       N  -4.727 -5.69* -5.01* -29.9* -16.61 -17.15

Electrode       Va(V)      Jn(A/um)   Jp(A/um)   Jc(A/um)   Jt(A/um)
====================================================================
gate           0.000e+00 -0.000e+00 -0.000e+00 -0.000e+00  0.000e+00
source         0.000e+00 -7.568e-14 -1.603e-21 -7.568e-14 -7.568e-14
drain          1.000e-01  7.568e-14  7.355e-22  7.568e-14  7.568e-14
substrate      0.000e+00  5.011e-23  4.710e-19  4.710e-19  4.710e-19
Total                                                      2.219e-18

Time for bias point:   1.50 sec. 
Total time:           29.46 sec. 
  
ATLAS> solve name=gate  vgate=0.0

Obtaining static solution:


prev           psi     n      p     psi     n      p  
direct          x      x      x     rhs    rhs    rhs 
   i    j  m  -5.00* -5.00* -5.00* -26.0* -17.3* -17.3*
-------------------------------------------------------
   1       N  -4.489 -5.34* -4.753 -29.9* -16.33 -16.73
   2       N  -5.61* -6.46* -5.87* -29.9* -16.64 -17.9*

Electrode       Va(V)      Jn(A/um)   Jp(A/um)   Jc(A/um)   Jt(A/um)
====================================================================
gate           0.000e+00 -0.000e+00 -0.000e+00 -0.000e+00  0.000e+00
source         0.000e+00 -7.570e-14 -1.603e-21 -7.570e-14 -7.570e-14
drain          1.000e-01  7.568e-14  7.352e-22  7.568e-14  7.568e-14
substrate      0.000e+00  5.011e-23  4.682e-19  4.683e-19  4.683e-19
Total                                                     -1.614e-17

Time for bias point:   1.00 sec. 
Total time:           30.46 sec. 
  
ATLAS> solve name=gate  vstep=0.05 vfinal=1.6

Obtaining static solution:

 V(   gate  ) = 0.05        


prev           psi     n      p     psi     n      p  
direct          x      x      x     rhs    rhs    rhs 
   i    j  m  -5.00* -5.00* -5.00* -26.0* -17.3* -17.3*
-------------------------------------------------------
   1       N   0.193  0.003 -0.134 -23.54 -5.912 -7.313
   2       N  -0.037 -0.672 -0.317 -29.9* -7.436 -7.837
   3       N   0.001 -0.829 -0.119 -29.9* -7.368 -7.755
   4       N  -1.054 -2.405 -1.099 -29.9* -9.520 -9.617
   5       N  -2.399 -3.136 -2.682 -29.9* -12.14 -12.55
   6       N  -4.345 -5.11* -4.557 -29.9* -16.04 -16.45
   7       N  -4.645 -5.43* -4.901 -29.9* -16.63 -17.04
   8       N  -6.64* -7.42* -6.89* -29.9* -16.64 -17.9*

Electrode       Va(V)      Jn(A/um)   Jp(A/um)   Jc(A/um)   Jt(A/um)
====================================================================
gate           5.000e-02 -0.000e+00 -0.000e+00 -0.000e+00  0.000e+00
source         0.000e+00 -2.338e-13 -1.656e-21 -2.338e-13 -2.338e-13
drain          1.000e-01  2.338e-13  7.343e-22  2.338e-13  2.338e-13
substrate      0.000e+00  5.011e-23  4.819e-19  4.819e-19  4.819e-19
Total                                                     -1.615e-17

Time for bias point:   4.00 sec. 
Total time:           34.46 sec. 
  

Obtaining static solution:

 V(   gate  ) = 0.1         


proj           psi     n      p     psi     n      p  
direct          x      x      x     rhs    rhs    rhs 
   i    j  m  -5.00* -5.00* -5.00* -26.0* -17.3* -17.3*
-------------------------------------------------------
   1       N  -1.296 -1.413 -1.335 -29.9* -8.087 -9.039
   2       N  -3.164 -3.209 -3.189 -29.9* -12.94 -13.11
   3       N  -3.843 -4.594 -4.107 -29.9* -15.05 -15.43
   4       N  -5.26* -6.01* -5.52* -29.9* -16.60 -17.9*

Electrode       Va(V)      Jn(A/um)   Jp(A/um)   Jc(A/um)   Jt(A/um)
====================================================================
gate           1.000e-01 -0.000e+00 -0.000e+00 -0.000e+00  0.000e+00